(PID.TID 0000.0001) 
(PID.TID 0000.0001) // ======================================================
(PID.TID 0000.0001) //                      MITgcm UV
(PID.TID 0000.0001) //                      =========
(PID.TID 0000.0001) // ======================================================
(PID.TID 0000.0001) // execution environment starting up...
(PID.TID 0000.0001) 
(PID.TID 0000.0001) // MITgcmUV version:  checkpoint68e
(PID.TID 0000.0001) // Build user:        hajsong
(PID.TID 0000.0001) // Build host:        acc00
(PID.TID 0000.0001) // Build date:        Mon Dec 20 17:40:35 KST 2021
(PID.TID 0000.0001) 
(PID.TID 0000.0001) // =======================================================
(PID.TID 0000.0001) // Execution Environment parameter file "eedata"
(PID.TID 0000.0001) // =======================================================
(PID.TID 0000.0001) ># Example "eedata" file
(PID.TID 0000.0001) ># Lines beginning "#" are comments
(PID.TID 0000.0001) ># nTx - No. threads per process in X
(PID.TID 0000.0001) ># nTy - No. threads per process in Y
(PID.TID 0000.0001) > &EEPARMS
(PID.TID 0000.0001) > nTx=1,
(PID.TID 0000.0001) > nTy=1,
(PID.TID 0000.0001) > &
(PID.TID 0000.0001) ># Note: Some systems use & as the
(PID.TID 0000.0001) ># namelist terminator. Other systems
(PID.TID 0000.0001) ># use a / character (as shown here).
(PID.TID 0000.0001) 
(PID.TID 0000.0001) // =======================================================
(PID.TID 0000.0001) // Computational Grid Specification ( see files "SIZE.h" )
(PID.TID 0000.0001) //                                  ( and "eedata"       )
(PID.TID 0000.0001) // =======================================================
(PID.TID 0000.0001)      nPx =    1 ; /* No. processes in X */
(PID.TID 0000.0001)      nPy =    1 ; /* No. processes in Y */
(PID.TID 0000.0001)      nSx =    1 ; /* No. tiles in X per process */
(PID.TID 0000.0001)      nSy =    1 ; /* No. tiles in Y per process */
(PID.TID 0000.0001)      sNx =   90 ; /* Tile size in X */
(PID.TID 0000.0001)      sNy =   40 ; /* Tile size in Y */
(PID.TID 0000.0001)      OLx =    2 ; /* Tile overlap distance in X */
(PID.TID 0000.0001)      OLy =    2 ; /* Tile overlap distance in Y */
(PID.TID 0000.0001)      nTx =    1 ; /* No. threads in X per process */
(PID.TID 0000.0001)      nTy =    1 ; /* No. threads in Y per process */
(PID.TID 0000.0001)       Nr =   15 ; /* No. levels in the vertical   */
(PID.TID 0000.0001)       Nx =   90 ; /* Total domain size in X ( = nPx*nSx*sNx ) */
(PID.TID 0000.0001)       Ny =   40 ; /* Total domain size in Y ( = nPy*nSy*sNy ) */
(PID.TID 0000.0001)   nTiles =    1 ; /* Total no. tiles per process ( = nSx*nSy ) */
(PID.TID 0000.0001)   nProcs =    1 ; /* Total no. processes ( = nPx*nPy ) */
(PID.TID 0000.0001) nThreads =    1 ; /* Total no. threads per process ( = nTx*nTy ) */
(PID.TID 0000.0001) usingMPI =    T ; /* Flag used to control whether MPI is in use */
(PID.TID 0000.0001)                   /*  note: To execute a program with MPI calls */
(PID.TID 0000.0001)                   /*  it must be launched appropriately e.g     */
(PID.TID 0000.0001)                   /*  "mpirun -np 64 ......"                    */
(PID.TID 0000.0001) useCoupler=   F ; /* Flag used to control communications with   */
(PID.TID 0000.0001)                   /*  other model components, through a coupler */
(PID.TID 0000.0001) useNest2W_parent =    F ;/* Control 2-W Nesting comm */
(PID.TID 0000.0001) useNest2W_child  =    F ;/* Control 2-W Nesting comm */
(PID.TID 0000.0001) debugMode =    F ; /* print debug msg. (sequence of S/R calls)  */
(PID.TID 0000.0001) printMapIncludesZeros=    F ; /* print zeros in Std.Output maps */
(PID.TID 0000.0001) maxLengthPrt1D=   65 /* maxLength of 1D array printed to StdOut */
(PID.TID 0000.0001) 
(PID.TID 0000.0001) ======= Starting MPI parallel Run =========
(PID.TID 0000.0001)  My Processor Name (len:  5 ) = acc00
(PID.TID 0000.0001)  Located at (  0,  0) on processor grid (0:  0,0:  0)
(PID.TID 0000.0001)  Origin at  (     1,     1) on global grid (1:    90,1:    40)
(PID.TID 0000.0001)  North neighbor = processor 0000
(PID.TID 0000.0001)  South neighbor = processor 0000
(PID.TID 0000.0001)   East neighbor = processor 0000
(PID.TID 0000.0001)   West neighbor = processor 0000
(PID.TID 0000.0001) // ======================================================
(PID.TID 0000.0001) // Mapping of tiles to threads
(PID.TID 0000.0001) // ======================================================
(PID.TID 0000.0001) // -o- Thread   1, tiles (   1:   1,   1:   1)
(PID.TID 0000.0001) 
(PID.TID 0000.0001) // ======================================================
(PID.TID 0000.0001) // Tile <-> Tile connectvity table
(PID.TID 0000.0001) // ======================================================
(PID.TID 0000.0001) // Tile number: 000001 (process no. = 000000)
(PID.TID 0000.0001) //        WEST: Tile = 000001, Process = 000000, Comm = put
(PID.TID 0000.0001) //                bi = 000001, bj = 000001
(PID.TID 0000.0001) //        EAST: Tile = 000001, Process = 000000, Comm = put
(PID.TID 0000.0001) //                bi = 000001, bj = 000001
(PID.TID 0000.0001) //       SOUTH: Tile = 000001, Process = 000000, Comm = put
(PID.TID 0000.0001) //                bi = 000001, bj = 000001
(PID.TID 0000.0001) //       NORTH: Tile = 000001, Process = 000000, Comm = put
(PID.TID 0000.0001) //                bi = 000001, bj = 000001
(PID.TID 0000.0001) 
(PID.TID 0000.0001)  INI_PARMS: opening model parameter file "data"
(PID.TID 0000.0001)  OPEN_COPY_DATA_FILE: opening file data
(PID.TID 0000.0001) // =======================================================
(PID.TID 0000.0001) // Parameter file "data"
(PID.TID 0000.0001) // =======================================================
(PID.TID 0000.0001) ># ====================
(PID.TID 0000.0001) ># | Model parameters |
(PID.TID 0000.0001) ># ====================
(PID.TID 0000.0001) >#
(PID.TID 0000.0001) ># Continuous equation parameters
(PID.TID 0000.0001) > &PARM01
(PID.TID 0000.0001) > tRef = 15*20.,
(PID.TID 0000.0001) > sRef = 15*35.,
(PID.TID 0000.0001) > viscAr=1.E-3,
(PID.TID 0000.0001) > viscAh=5.E5,
(PID.TID 0000.0001) > diffKhT=0.,
(PID.TID 0000.0001) > diffKrT=3.E-5,
(PID.TID 0000.0001) > diffKhS=0.,
(PID.TID 0000.0001) > diffKrS=3.E-5,
(PID.TID 0000.0001) > rhoConst=1035.,
(PID.TID 0000.0001) > rhoConstFresh=1000.,
(PID.TID 0000.0001) > eosType = 'JMD95Z',
(PID.TID 0000.0001) > ivdc_kappa=100.,
(PID.TID 0000.0001) > implicitDiffusion=.TRUE.,
(PID.TID 0000.0001) > allowFreezing=.TRUE.,
(PID.TID 0000.0001) > exactConserv=.TRUE.,
(PID.TID 0000.0001) > useRealFreshWaterFlux=.TRUE.,
(PID.TID 0000.0001) > useCDscheme=.TRUE.,
(PID.TID 0000.0001) ># turn on looped cells
(PID.TID 0000.0001) > hFacMin=.05,
(PID.TID 0000.0001) > hFacMindr=50.,
(PID.TID 0000.0001) ># set precision of data files
(PID.TID 0000.0001) > readBinaryPrec=32,
(PID.TID 0000.0001) > useSingleCpuIO=.TRUE.,
(PID.TID 0000.0001) > debugLevel=5,
(PID.TID 0000.0001) > &
(PID.TID 0000.0001) >
(PID.TID 0000.0001) ># Elliptic solver parameters
(PID.TID 0000.0001) > &PARM02
(PID.TID 0000.0001) > cg2dMaxIters=500,
(PID.TID 0000.0001) > cg2dTargetResidual=1.E-13,
(PID.TID 0000.0001) > &
(PID.TID 0000.0001) >
(PID.TID 0000.0001) ># Time stepping parameters
(PID.TID 0000.0001) > &PARM03
(PID.TID 0000.0001) > nIter0=      0,
(PID.TID 0000.0001) > nTimeSteps = 100,
(PID.TID 0000.0001) ># 100 years of integration will yield a reasonable flow field
(PID.TID 0000.0001) ># startTime =          0.,
(PID.TID 0000.0001) ># endTime   = 3110400000.,
(PID.TID 0000.0001) ># endTime   = 31104000.,
(PID.TID 0000.0001) > deltaTmom = 1800.,
(PID.TID 0000.0001) > tauCD =     321428.,
(PID.TID 0000.0001) > deltaTtracer= 86400.,
(PID.TID 0000.0001) > deltaTClock = 86400.,
(PID.TID 0000.0001) > deltaTfreesurf= 86400.,
(PID.TID 0000.0001) > abEps = 0.1,
(PID.TID 0000.0001) > pChkptFreq= 864000.,
(PID.TID 0000.0001) > dumpFreq=   864000.,
(PID.TID 0000.0001) > taveFreq=   864000.,
(PID.TID 0000.0001) > monitorFreq=1.,
(PID.TID 0000.0001) ># 2 months restoring timescale for temperature
(PID.TID 0000.0001) ># tauThetaClimRelax=  5184000.,
(PID.TID 0000.0001) ># 6 months restoring timescale for salinity
(PID.TID 0000.0001) ># tauSaltClimRelax = 15552000.,
(PID.TID 0000.0001) > periodicExternalForcing=.TRUE.,
(PID.TID 0000.0001) > externForcingPeriod=2592000.,
(PID.TID 0000.0001) > externForcingCycle=31104000.,
(PID.TID 0000.0001) > &
(PID.TID 0000.0001) >
(PID.TID 0000.0001) ># Gridding parameters
(PID.TID 0000.0001) > &PARM04
(PID.TID 0000.0001) > usingSphericalPolarGrid=.TRUE.,
(PID.TID 0000.0001) > delR= 50.,  70., 100., 140., 190.,
(PID.TID 0000.0001) >      240., 290., 340., 390., 440.,
(PID.TID 0000.0001) >      490., 540., 590., 640., 690.,
(PID.TID 0000.0001) > ygOrigin=-80.,
(PID.TID 0000.0001) > dySpacing=4.,
(PID.TID 0000.0001) > dxSpacing=4.,
(PID.TID 0000.0001) > &
(PID.TID 0000.0001) >
(PID.TID 0000.0001) ># Input datasets
(PID.TID 0000.0001) > &PARM05
(PID.TID 0000.0001) > bathyFile=      'bathymetry.bin',
(PID.TID 0000.0001) > hydrogThetaFile='lev_t.bin',
(PID.TID 0000.0001) > hydrogSaltFile= 'lev_s.bin',
(PID.TID 0000.0001) > zonalWindFile=  'trenberth_taux.bin',
(PID.TID 0000.0001) > meridWindFile=  'trenberth_tauy.bin',
(PID.TID 0000.0001) > thetaClimFile=  'lev_sst.bin',
(PID.TID 0000.0001) > saltClimFile=   'lev_sss.bin',
(PID.TID 0000.0001) > surfQnetFile=   'ncep_qnet.bin',
(PID.TID 0000.0001) > the_run_name=   'global_oce_latlon',
(PID.TID 0000.0001) ># fresh water flux is turned on, comment next line to it turn off
(PID.TID 0000.0001) ># (maybe better with surface salinity restoring)
(PID.TID 0000.0001) > EmPmRFile=      'ncep_emp.bin',
(PID.TID 0000.0001) ># checkIniTemp=.FALSE.,
(PID.TID 0000.0001) ># checkIniSalt=.FALSE.
(PID.TID 0000.0001) > &
(PID.TID 0000.0001) 
(PID.TID 0000.0001)  INI_PARMS ; starts to read PARM01
(PID.TID 0000.0001)  INI_PARMS ; read PARM01 : OK
(PID.TID 0000.0001) S/R INI_PARMS: No request for barotropic solver
(PID.TID 0000.0001) S/R INI_PARMS: => Use implicitFreeSurface as default
(PID.TID 0000.0001)  INI_PARMS ; starts to read PARM02
(PID.TID 0000.0001)  INI_PARMS ; read PARM02 : OK
(PID.TID 0000.0001)  INI_PARMS ; starts to read PARM03
(PID.TID 0000.0001)  INI_PARMS ; read PARM03 : OK
(PID.TID 0000.0001)  INI_PARMS ; starts to read PARM04
(PID.TID 0000.0001)  INI_PARMS ; read PARM04 : OK
(PID.TID 0000.0001)  INI_PARMS ; starts to read PARM05
(PID.TID 0000.0001)  INI_PARMS ; read PARM05 : OK
(PID.TID 0000.0001)  INI_PARMS: finished reading file "data"
(PID.TID 0000.0001)  PACKAGES_BOOT: opening data.pkg
(PID.TID 0000.0001)  OPEN_COPY_DATA_FILE: opening file data.pkg
(PID.TID 0000.0001) // =======================================================
(PID.TID 0000.0001) // Parameter file "data.pkg"
(PID.TID 0000.0001) // =======================================================
(PID.TID 0000.0001) ># Packages (lines beginning "#" are comments)
(PID.TID 0000.0001) > &PACKAGES
(PID.TID 0000.0001) > useGMRedi=.TRUE.,
(PID.TID 0000.0001) >#usePTRACERS=.TRUE.,
(PID.TID 0000.0001) >#useMNC=.TRUE.,
(PID.TID 0000.0001) > &
(PID.TID 0000.0001) 
(PID.TID 0000.0001)  PACKAGES_BOOT: finished reading data.pkg
(PID.TID 0000.0001)  PACKAGES_BOOT: On/Off package Summary
 --------  pkgs with a standard "usePKG" On/Off switch in "data.pkg":  --------
 pkg/gmredi               compiled   and   used ( useGMRedi                = T )
 pkg/ptracers             compiled but not used ( usePTRACERS              = F )
 pkg/mnc                  compiled but not used ( useMNC                   = F )
 -------- pkgs without standard "usePKG" On/Off switch in "data.pkg":  --------
 pkg/generic_advdiff      compiled   and   used ( useGAD                   = T )
 pkg/mom_common           compiled   and   used ( momStepping              = T )
 pkg/mom_vecinv           compiled but not used ( +vectorInvariantMomentum = F )
 pkg/mom_fluxform         compiled   and   used ( & not vectorInvariantMom = T )
 pkg/cd_code              compiled   and   used ( useCDscheme              = T )
 pkg/monitor              compiled   and   used ( monitorFreq > 0.         = T )
 pkg/timeave              compiled   and   used ( taveFreq > 0.            = T )
 pkg/debug                compiled but not used ( debugMode                = F )
 pkg/rw                   compiled   and   used
 pkg/mdsio                compiled   and   used
(PID.TID 0000.0001)  PACKAGES_BOOT: End of package Summary
(PID.TID 0000.0001) 
(PID.TID 0000.0001)  GM_READPARMS: opening data.gmredi
(PID.TID 0000.0001)  OPEN_COPY_DATA_FILE: opening file data.gmredi
(PID.TID 0000.0001) // =======================================================
(PID.TID 0000.0001) // Parameter file "data.gmredi"
(PID.TID 0000.0001) // =======================================================
(PID.TID 0000.0001) ># GM+Redi package parameters:
(PID.TID 0000.0001) >
(PID.TID 0000.0001) >#-from MOM :
(PID.TID 0000.0001) ># GM_background_K: 	G & Mc.W  diffusion coefficient
(PID.TID 0000.0001) ># GM_maxSlope    :	max slope of isopycnals
(PID.TID 0000.0001) ># GM_Scrit       :	transition for scaling diffusion coefficient
(PID.TID 0000.0001) ># GM_Sd          :	half width scaling for diffusion coefficient
(PID.TID 0000.0001) ># GM_taper_scheme:	slope clipping or one of the tapering schemes
(PID.TID 0000.0001) ># GM_Kmin_horiz  :	horizontal diffusion minimum value
(PID.TID 0000.0001) >
(PID.TID 0000.0001) >#-Option parameters (needs to "define" options in GMREDI_OPTIONS.h")
(PID.TID 0000.0001) ># GM_isopycK     :	isopycnal diffusion coefficient (default=GM_background_K)
(PID.TID 0000.0001) ># GM_AdvForm     :	turn on GM Advective form       (default=Skew flux form)
(PID.TID 0000.0001) >
(PID.TID 0000.0001) > &GM_PARM01
(PID.TID 0000.0001) >  GM_background_K    = 1.e+3,
(PID.TID 0000.0001) >  GM_taper_scheme    = 'gkw91',
(PID.TID 0000.0001) >  GM_maxSlope        = 1.e-2,
(PID.TID 0000.0001) >  GM_Kmin_horiz      = 50.,
(PID.TID 0000.0001) >  GM_Scrit           = 4.e-3,
(PID.TID 0000.0001) >  GM_Sd              = 1.e-3,
(PID.TID 0000.0001) ># GM_Visbeck_alpha   = 0.,
(PID.TID 0000.0001) ># GM_Visbeck_length  = 2.e+5,
(PID.TID 0000.0001) ># GM_Visbeck_depth   = 1.e+3,
(PID.TID 0000.0001) ># GM_Visbeck_maxval_K= 2.5e+3,
(PID.TID 0000.0001) > &
(PID.TID 0000.0001) >
(PID.TID 0000.0001) >
(PID.TID 0000.0001) 
(PID.TID 0000.0001)  GM_READPARMS: finished reading data.gmredi
(PID.TID 0000.0001) SET_PARMS: done
(PID.TID 0000.0001) Enter INI_VERTICAL_GRID: setInterFDr=    T ; setCenterDr=    F
(PID.TID 0000.0001) %MON XC_max                       =   3.5800000000000E+02
(PID.TID 0000.0001) %MON XC_min                       =   2.0000000000000E+00
(PID.TID 0000.0001) %MON XC_mean                      =   1.8000000000000E+02
(PID.TID 0000.0001) %MON XC_sd                        =   1.0391663325314E+02
(PID.TID 0000.0001) %MON XG_max                       =   3.5600000000000E+02
(PID.TID 0000.0001) %MON XG_min                       =   0.0000000000000E+00
(PID.TID 0000.0001) %MON XG_mean                      =   1.7800000000000E+02
(PID.TID 0000.0001) %MON XG_sd                        =   1.0391663325314E+02
(PID.TID 0000.0001) %MON DXC_max                      =   4.4443898815675E+05
(PID.TID 0000.0001) %MON DXC_min                      =   9.2460385861875E+04
(PID.TID 0000.0001) %MON DXC_mean                     =   3.1372497618153E+05
(PID.TID 0000.0001) %MON DXC_sd                       =   1.1216447457560E+05
(PID.TID 0000.0001) %MON DXF_max                      =   4.4443898815675E+05
(PID.TID 0000.0001) %MON DXF_min                      =   9.2460385861875E+04
(PID.TID 0000.0001) %MON DXF_mean                     =   3.1372497618153E+05
(PID.TID 0000.0001) %MON DXF_sd                       =   1.1216447457560E+05
(PID.TID 0000.0001) %MON DXG_max                      =   4.4470989340816E+05
(PID.TID 0000.0001) %MON DXG_min                      =   7.7223062580781E+04
(PID.TID 0000.0001) %MON DXG_mean                     =   3.1353386340260E+05
(PID.TID 0000.0001) %MON DXG_sd                       =   1.1256651772502E+05
(PID.TID 0000.0001) %MON DXV_max                      =   4.4470989340816E+05
(PID.TID 0000.0001) %MON DXV_min                      =   7.7223062580781E+04
(PID.TID 0000.0001) %MON DXV_mean                     =   3.1353386340260E+05
(PID.TID 0000.0001) %MON DXV_sd                       =   1.1256651772502E+05
(PID.TID 0000.0001) %MON YC_max                       =   7.8000000000000E+01
(PID.TID 0000.0001) %MON YC_min                       =  -7.8000000000000E+01
(PID.TID 0000.0001) %MON YC_mean                      =   0.0000000000000E+00
(PID.TID 0000.0001) %MON YC_sd                        =   4.6173585522461E+01
(PID.TID 0000.0001) %MON YG_max                       =   7.6000000000000E+01
(PID.TID 0000.0001) %MON YG_min                       =  -8.0000000000000E+01
(PID.TID 0000.0001) %MON YG_mean                      =  -2.0000000000000E+00
(PID.TID 0000.0001) %MON YG_sd                        =   4.6173585522461E+01
(PID.TID 0000.0001) %MON DYC_max                      =   4.4470989340816E+05
(PID.TID 0000.0001) %MON DYC_min                      =   4.4470989340816E+05
(PID.TID 0000.0001) %MON DYC_mean                     =   4.4470989340814E+05
(PID.TID 0000.0001) %MON DYC_sd                       =   1.9848812371492E-08
(PID.TID 0000.0001) %MON DYF_max                      =   4.4470989340816E+05
(PID.TID 0000.0001) %MON DYF_min                      =   4.4470989340816E+05
(PID.TID 0000.0001) %MON DYF_mean                     =   4.4470989340814E+05
(PID.TID 0000.0001) %MON DYF_sd                       =   1.9848812371492E-08
(PID.TID 0000.0001) %MON DYG_max                      =   4.4470989340816E+05
(PID.TID 0000.0001) %MON DYG_min                      =   4.4470989340816E+05
(PID.TID 0000.0001) %MON DYG_mean                     =   4.4470989340814E+05
(PID.TID 0000.0001) %MON DYG_sd                       =   1.9848812371492E-08
(PID.TID 0000.0001) %MON DYU_max                      =   4.4470989340816E+05
(PID.TID 0000.0001) %MON DYU_min                      =   4.4470989340816E+05
(PID.TID 0000.0001) %MON DYU_mean                     =   4.4470989340814E+05
(PID.TID 0000.0001) %MON DYU_sd                       =   1.9848812371492E-08
(PID.TID 0000.0001) %MON RA_max                       =   1.9760627980089E+11
(PID.TID 0000.0001) %MON RA_min                       =   4.1109698667290E+10
(PID.TID 0000.0001) %MON RA_mean                      =   1.3948826965197E+11
(PID.TID 0000.0001) %MON RA_sd                        =   4.9870522472902E+10
(PID.TID 0000.0001) %MON RAW_max                      =   1.9760627980089E+11
(PID.TID 0000.0001) %MON RAW_min                      =   4.1109698667290E+10
(PID.TID 0000.0001) %MON RAW_mean                     =   1.3948826965197E+11
(PID.TID 0000.0001) %MON RAW_sd                       =   4.9870522472902E+10
(PID.TID 0000.0001) %MON RAS_max                      =   1.9772672958215E+11
(PID.TID 0000.0001) %MON RAS_min                      =   3.4334886267983E+10
(PID.TID 0000.0001) %MON RAS_mean                     =   1.3940329716694E+11
(PID.TID 0000.0001) %MON RAS_sd                       =   5.0049278732354E+10
(PID.TID 0000.0001) %MON RAZ_max                      =   1.9772672958215E+11
(PID.TID 0000.0001) %MON RAZ_min                      =   3.4334886267983E+10
(PID.TID 0000.0001) %MON RAZ_mean                     =   1.3940329716694E+11
(PID.TID 0000.0001) %MON RAZ_sd                       =   5.0049278732354E+10
(PID.TID 0000.0001) %MON AngleCS_max                  =   1.0000000000000E+00
(PID.TID 0000.0001) %MON AngleCS_min                  =   1.0000000000000E+00
(PID.TID 0000.0001) %MON AngleCS_mean                 =   1.0000000000000E+00
(PID.TID 0000.0001) %MON AngleCS_sd                   =   0.0000000000000E+00
(PID.TID 0000.0001) %MON AngleSN_max                  =   0.0000000000000E+00
(PID.TID 0000.0001) %MON AngleSN_min                  =   0.0000000000000E+00
(PID.TID 0000.0001) %MON AngleSN_mean                 =   0.0000000000000E+00
(PID.TID 0000.0001) %MON AngleSN_sd                   =   0.0000000000000E+00
(PID.TID 0000.0001)  MDS_WRITEVEC_LOC: open file: RhoRef.data
(PID.TID 0000.0001)  MDS_WR_REC_RL: iRec,Dim =         1         15
(PID.TID 0000.0001)  MDS_READ_FIELD: opening global file: bathymetry.bin
(PID.TID 0000.0001) // =======================================================
(PID.TID 0000.0001) // Field Bottom depths (ini_depths)
(PID.TID 0000.0001) // CMIN =         -5.200000000000000E+03
(PID.TID 0000.0001) // CMAX =         -1.200000000000000E+02
(PID.TID 0000.0001) // CINT =          1.881481481481482E+02
(PID.TID 0000.0001) // SYMBOLS (CMIN->CMAX): -abcdefghijklmnopqrstuvwxyz+
(PID.TID 0000.0001) //                  0.0: .
(PID.TID 0000.0001) // RANGE I (Lo:Hi:Step):(    -1:    92:     1)
(PID.TID 0000.0001) // RANGE J (Lo:Hi:Step):(    42:    -1:    -1)
(PID.TID 0000.0001) // RANGE K (Lo:Hi:Step):(   1:   1:   1)
(PID.TID 0000.0001) // =======================================================
(PID.TID 0000.0001) K =   1
(PID.TID 0000.0001) //                I=8       I=18      I=28      I=38      I=48      I=58      I=68      I=78      I=88
(PID.TID 0000.0001) // |--J--|101234567|901234567|901234567|901234567|901234567|901234567|901234567|901234567|901234567|9012
(PID.TID 0000.0001) //     42 ............................................zyxxmgfeeefefgimnpwwwy..+zyy.....yyyyoiiihhz+.....
(PID.TID 0000.0001) //     41 ..............................................................................................
(PID.TID 0000.0001) //     40 qlloqz+.++++zzz++++++..................................................................+++qllo
(PID.TID 0000.0001) //     39 slloorzzzzzzzzz+...++.....................................................yxxz........+zvusllo
(PID.TID 0000.0001) //     38 mqpporzzzzzz+++...........................................................zxxy+......zyyvsmqpp
(PID.TID 0000.0001) //     37 mmmuz..................................................................++...zy+...zttyy.+smmmu
(PID.TID 0000.0001) //     36 utt+.........................................mm++....................+++++++znmm.zoowssvuyutt+
(PID.TID 0000.0001) //     35 ++++.................................+zzz..rrmmkk+...+gghn...........+++....+nmiijlsoopuww++++
(PID.TID 0000.0001) //     34 .....................................+vvy.ggqyxv+z.ccdffhim..................+nihhikkihhm+....
(PID.TID 0000.0001) //     33 +.....................................uuz---h------aaabdefin+.................zqvddflifffw+...
(PID.TID 0000.0001) //     32 +.....................................+t----h---------acdfgnn................+++gdffkofffm+...
(PID.TID 0000.0001) //     31 ......................................-----ad--------abddegil..............qbaafccdhqqgddm....
(PID.TID 0000.0001) //     30 .....................................f----b--b------------abd............zfbb--fbcdosjfddi....
(PID.TID 0000.0001) //     29 ...................................tu----e---fjg----------abdf...........eaac--abfmijaadgi....
(PID.TID 0000.0001) //     28 .................................+xfl-------------------bdedefi.........qbaa---aemfbbaaejz....
(PID.TID 0000.0001) //     27 ................xx..............+wfgfpf--------eallc---bbbccefgi...+++y.qb-----akfa---ah......
(PID.TID 0000.0001) //     26 ................xnn...........+vd---dna------a--aicfna---aabdfghku.++xssuy-----bgca---ci......
(PID.TID 0000.0001) //     25 ................iiik...oo+...+ivd---doaa-bc--ilglf--aa---aabcghhkll...ssum+xaaacjbaabdjk......
(PID.TID 0000.0001) //     24 ..............xnheeft.kkk+...uii.aagdm----aa-----a-------bbbcdefjljjju.zummwwbbchba--abi......
(PID.TID 0000.0001) //     23 ..............xgheefp.iikw...uuw..fihi----fed-----eaaa--bbbbcdfflkjiiiq....zykccefa--abd......
(PID.TID 0000.0001) //     22 uss...........bbelffslffkk...zz.wqkeeqoheccdfa-----egabaabcdddegghliiiqq......xeeehheehccquss.
(PID.TID 0000.0001) //     21 bbeir........nbbcdjhqdddiiz.....wqfeelgghmedea-----bibbcddddddefghklnqoo........ieeflhgcccbbei
(PID.TID 0000.0001) //     20 bbder.......ldcccdgkccccidd......z.vkkktqqhegg----aaacddddddddefghkiiijl.........nhfa--gfcbbde
(PID.TID 0000.0001) //     19 cdaaf.......kddosggpaaaibbccx...+z+.....r+nlec---agaaabcddddddefikfgffff...........d---cjhcdaa
(PID.TID 0000.0001) //     18 d---d.......kglggvliaaaibbcaaeaiv++...qqzolhecccfdgkaabcdfdddeeikgfgffdd+..........d---djhd---
(PID.TID 0000.0001) //     17 c---c.......l.feewlfaaaoaa----aiv.....qqnllslmlofcdbaacceffffhhligfigeddj.........hd---ckhc---
(PID.TID 0000.0001) //     16 ba--c......tn.ddgnlfdaaqa-----lv.......vnllvllnwv--accivomfffhilhgfffeddjf........re--aeigba--
(PID.TID 0000.0001) //     15 b--dpz....+ll.ccdfhmdddlc----av.........otsxoomv---abccddfihgijkhgfffeejfff......+fd---ckfb--d
(PID.TID 0000.0001) //     14 c--mcl....weeqbaafilkfend--eagy.........hhstofft----aacdheefijkmjhhjijiffff.....zlfdaaadlfc--m
(PID.TID 0000.0001) //     13 cclbbg....nccobaaiddgkffqrqeaal.........eeutqfft------aaceeffhijlkjhhigfffq....+jgfodccflhcclb
(PID.TID 0000.0001) //     12 hgaaacw+iiicclemhdddfliigfdcaabfaaaz....ccsurqpc--------abcifffikiiihhggff.....kbbbdfffglhhgaa
(PID.TID 0000.0001) //     11 gcaaacbbifccennhbbdefnihgfdccaaaa----..dcccnt.ncab-------aabcdfilhggjiggff....l---abcefjlkgcaa
(PID.TID 0000.0001) //     10 fcaaccbdaacfrllfbbdegkmmljhfdddba----d.dcccfx.nyrebaba----abcdgilhfeegijgi..+w--aa-abcfilkfcaa
(PID.TID 0000.0001) //      9 ffcdcccaaaoqsolfdeehikihhlllgfedcccccdmdcccf.vyfaaaaaaaa--abdehmjhfeeefglv.++w-----abcdfklffcd
(PID.TID 0000.0001) //      8 iffjklcaafddffeeccvznkfffhhhlkjifgjkkfeeddfsyvcaaaaaaccdcccdfgjligedbbdeg+.++xffn--cfddefliffj
(PID.TID 0000.0001) //      7 mqnnbbkkf--bmbaabbgtykfddeffeeddccdfhlffeelfbaaaaaacddeghgjgjlligeddaaabedfiiiiiisvkfkecchmqnn
(PID.TID 0000.0001) //      6 ca-------------aabdelttdddedddddccccdfkkiiffbaaaabcdgimmkmefecaaabbbaaabbdfiiiiispmmregifcca--
(PID.TID 0000.0001) //      5 -------a-------aacdehhhiddeddddddcccdfiikomodddefffmlmigedccaaaaaaaababbbdfiijsqgeccccbaa-----
(PID.TID 0000.0001) //      4 -ahebaabbbbbeihffgijiiiijpywnnpokkomkiiijmmmolkommmgffeeedccaaaaaabbcccefhmz..yjgeccccbaa--ahe
(PID.TID 0000.0001) //      3 ffhhrpjiiwyy............................yyotmjjjjgfeeeeeeddeffffheddeghjkzz..yqjgeddccdbbgffhh
(PID.TID 0000.0001) //      2 ............................................zyxxmgfeeefefgimnpwwwy..+zyy.....yyyyoiiihhz+.....
(PID.TID 0000.0001) //      1 ..............................................................................................
(PID.TID 0000.0001) //      0 qlloqz+.++++zzz++++++..................................................................+++qllo
(PID.TID 0000.0001) //     -1 slloorzzzzzzzzz+...++.....................................................yxxz........+zvusllo
(PID.TID 0000.0001) // =======================================================
(PID.TID 0000.0001) // END OF FIELD                                          =
(PID.TID 0000.0001) // =======================================================
(PID.TID 0000.0001) 
(PID.TID 0000.0001) // =======================================================
(PID.TID 0000.0001) // Field Surface reference r-position (ini_depths)
(PID.TID 0000.0001) // CMIN =          1.000000000000000E+32
(PID.TID 0000.0001) // CMAX =         -1.000000000000000E+32
(PID.TID 0000.0001) // CINT =          0.000000000000000E+00
(PID.TID 0000.0001) // SYMBOLS (CMIN->CMAX): -abcdefghijklmnopqrstuvwxyz+
(PID.TID 0000.0001) //                  0.0: .
(PID.TID 0000.0001) // RANGE I (Lo:Hi:Step):(    -1:    92:     1)
(PID.TID 0000.0001) // RANGE J (Lo:Hi:Step):(    42:    -1:    -1)
(PID.TID 0000.0001) // RANGE K (Lo:Hi:Step):(   1:   1:   1)
(PID.TID 0000.0001) // =======================================================
(PID.TID 0000.0001) // =======================================================
(PID.TID 0000.0001) // END OF FIELD                                          =
(PID.TID 0000.0001) // =======================================================
(PID.TID 0000.0001) 
(PID.TID 0000.0001) // =======================================================
(PID.TID 0000.0001) // Field Model R_low (ini_masks_etc)
(PID.TID 0000.0001) // CMIN =         -5.200000000000000E+03
(PID.TID 0000.0001) // CMAX =         -1.200000000000000E+02
(PID.TID 0000.0001) // CINT =          1.881481481481482E+02
(PID.TID 0000.0001) // SYMBOLS (CMIN->CMAX): -abcdefghijklmnopqrstuvwxyz+
(PID.TID 0000.0001) //                  0.0: .
(PID.TID 0000.0001) // RANGE I (Lo:Hi:Step):(    -1:    92:     1)
(PID.TID 0000.0001) // RANGE J (Lo:Hi:Step):(    42:    -1:    -1)
(PID.TID 0000.0001) // RANGE K (Lo:Hi:Step):(   1:   1:   1)
(PID.TID 0000.0001) // =======================================================
(PID.TID 0000.0001) K =   1
(PID.TID 0000.0001) //                I=8       I=18      I=28      I=38      I=48      I=58      I=68      I=78      I=88
(PID.TID 0000.0001) // |--J--|101234567|901234567|901234567|901234567|901234567|901234567|901234567|901234567|901234567|9012
(PID.TID 0000.0001) //     42 ............................................zyxxmgfeeefefgimnpwwwy..+zyy.....yyyyoiiihhz+.....
(PID.TID 0000.0001) //     41 ..............................................................................................
(PID.TID 0000.0001) //     40 qlloqz+.++++zzz++++++..................................................................+++qllo
(PID.TID 0000.0001) //     39 slloorzzzzzzzzz+...++.....................................................yxxz........+zvusllo
(PID.TID 0000.0001) //     38 mqpporzzzzzz+++...........................................................zxxy+......zyyvsmqpp
(PID.TID 0000.0001) //     37 mmmuz..................................................................++...zy+...yttyy.+smmmu
(PID.TID 0000.0001) //     36 utt+.........................................mm++....................+++++++znmm.yoowssvuyutt+
(PID.TID 0000.0001) //     35 ++++.................................+zzz..rrmmkk+...+gghn...........+++....+nmiijlsoopuww++++
(PID.TID 0000.0001) //     34 .....................................+vvy.ggqyxv+y.ccdffhim..................+nihhikkihhm+....
(PID.TID 0000.0001) //     33 +.....................................uuz---h------aaabdefin+.................zqvddflifffw+...
(PID.TID 0000.0001) //     32 +.....................................+t----h---------acdfgnn................+++gdffkofffm+...
(PID.TID 0000.0001) //     31 ......................................-----ad--------abddegil..............qbaafccdhqqgddm....
(PID.TID 0000.0001) //     30 .....................................f----b--b------------abd............zfbb--fbcdosjfddi....
(PID.TID 0000.0001) //     29 ...................................tu----e---fjg----------abdf...........eaac--abfmijaadgi....
(PID.TID 0000.0001) //     28 .................................+xfl-------------------bdedefi.........qbaa---aemfbbaaejz....
(PID.TID 0000.0001) //     27 ................xx..............+wfgfpf--------eallc---bbbccefgi...+++x.qb-----akfa---ah......
(PID.TID 0000.0001) //     26 ................xnn...........+vd---dna------a--aicfna---aabdfghku.++xssuy-----bgca---ci......
(PID.TID 0000.0001) //     25 ................iiik...oo+...+ivd---doaa-bc--ilglf--aa---aabcghhkll...ssum+xaaacjbaabdjk......
(PID.TID 0000.0001) //     24 ..............xnheeft.kkk+...uii.aagdm----aa-----a-------bbbcdefjljjju.zummwwbbchba--abi......
(PID.TID 0000.0001) //     23 ..............xgheefp.iikw...uuw..fihi----fed-----eaaa--bbbbcdfflkjiiiq....zykccefa--abd......
(PID.TID 0000.0001) //     22 uss...........bbelffslffkk...zz.wqkeeqoheccdfa-----egabaabcdddegghliiiqq......xeeehheehccquss.
(PID.TID 0000.0001) //     21 bbeir........nbbcdjhqdddiiz.....wqfeelgghmedea-----bibbcddddddefghklnqoo........ieeflhgcccbbei
(PID.TID 0000.0001) //     20 bbder.......ldcccdgkccccidd......z.vkkktqqhegg----aaacddddddddefghkiiijl.........nhfa--gfcbbde
(PID.TID 0000.0001) //     19 cdaaf.......kddosggpaaaibbccx...+z+.....r+nlec---agaaabcddccddefikfgffff...........d---cjhcdaa
(PID.TID 0000.0001) //     18 d---d.......kglggvliaaaibbcaaeaiv++...qqzolhecccfdgkaabcdfccdeeikgfgffdd+..........d---djhd---
(PID.TID 0000.0001) //     17 c---c.......l.feewlfaaaoaa----aiv.....qqnllslmlofcdbaacceffffhhligfigeddj.........hd---ckhc---
(PID.TID 0000.0001) //     16 ba--c......tn.ddgnlfdaaqa-----lv.......vnllvllnwv--accivomfffhilhgfffeddjf........re--aeigba--
(PID.TID 0000.0001) //     15 b--dpz....+ll.ccdfhmdddlc----av.........otsxoomv---abccddfihgijkhgfffeejfff......+fd---ckfb--d
(PID.TID 0000.0001) //     14 c--mcl....weeqbaafilkfend--eagy.........hhstofft----aacdheefijkmjhhjijiffff.....zlfdaaadlfc--m
(PID.TID 0000.0001) //     13 cclbbg....nccobaaiddgkffqrqeaal.........eeutqfft------aaceeffhijlkjhhigfffq....+jgfodccflhcclb
(PID.TID 0000.0001) //     12 hgaaacw+iiicclemhdddfliigfdcaabfaaaz....ccsurqpc--------abcifffikiiihhggff.....kbbbdfffglhhgaa
(PID.TID 0000.0001) //     11 gcaaacbbifccennhbbdefnihgfdccaaaa----..dcccnt.ncab-------aabcdfilhggjiggff....l---abcefjlkgcaa
(PID.TID 0000.0001) //     10 fcaaccbdaacfrllfbbdegkmmljhfdddba----d.dcccfx.nyrebaba----abcdgilhfeegijgi..+w--aa-abcfilkfcaa
(PID.TID 0000.0001) //      9 ffcdcccaaaoqsolfdeehikihhlllgfedcccccdmdcccf.vyfaaaaaaaa--abdehmjhfeeefglv.++w-----abcdfklffcd
(PID.TID 0000.0001) //      8 iffjklcaafddffeeccvznkfffhhhlkjifgjkkfeeddfsyvcaaaaaaccdcccdfgjligedbbceg+.++xffn--cfddefliffj
(PID.TID 0000.0001) //      7 mqnnbbkkf--bmbaabbgtykfddeffeeddccdfhlffeelfbaaaaaacddeghgjgjlligeddaaabedfiiiiiisvkfkecchmqnn
(PID.TID 0000.0001) //      6 ca-------------aabcelttdddedddddccccdfkkiiffbaaaabcdgimmkmefecaaabbbaaabbdfiiiiispmmregifcca--
(PID.TID 0000.0001) //      5 -------a-------aaccehhhiddeddddddcccdfiikomodddefffmlmigedccaaaaaaaababbbdfiijsqgeccccbaa-----
(PID.TID 0000.0001) //      4 -ahebaabbbbbeihffgijiiiijpywnnpokkomkiiijmmmolkommmgffeeedccaaaaaabbcccefhmz..yjgeccccbaa--ahe
(PID.TID 0000.0001) //      3 ffhhrpjiiwyy............................yxotmjjjjgfeeeeeeddeffffheddeghjkyy..yqjgeddccdbbgffhh
(PID.TID 0000.0001) //      2 ............................................zyxxmgfeeefefgimnpwwwy..+zyy.....yyyyoiiihhz+.....
(PID.TID 0000.0001) //      1 ..............................................................................................
(PID.TID 0000.0001) //      0 qlloqz+.++++zzz++++++..................................................................+++qllo
(PID.TID 0000.0001) //     -1 slloorzzzzzzzzz+...++.....................................................yxxz........+zvusllo
(PID.TID 0000.0001) // =======================================================
(PID.TID 0000.0001) // END OF FIELD                                          =
(PID.TID 0000.0001) // =======================================================
(PID.TID 0000.0001) 
(PID.TID 0000.0001) // =======================================================
(PID.TID 0000.0001) // Field Model Ro_surf (ini_masks_etc)
(PID.TID 0000.0001) // CMIN =          1.000000000000000E+32
(PID.TID 0000.0001) // CMAX =         -1.000000000000000E+32
(PID.TID 0000.0001) // CINT =          0.000000000000000E+00
(PID.TID 0000.0001) // SYMBOLS (CMIN->CMAX): -abcdefghijklmnopqrstuvwxyz+
(PID.TID 0000.0001) //                  0.0: .
(PID.TID 0000.0001) // RANGE I (Lo:Hi:Step):(    -1:    92:     1)
(PID.TID 0000.0001) // RANGE J (Lo:Hi:Step):(    42:    -1:    -1)
(PID.TID 0000.0001) // RANGE K (Lo:Hi:Step):(   1:   1:   1)
(PID.TID 0000.0001) // =======================================================
(PID.TID 0000.0001) // =======================================================
(PID.TID 0000.0001) // END OF FIELD                                          =
(PID.TID 0000.0001) // =======================================================
(PID.TID 0000.0001) 
(PID.TID 0000.0001) // =======================================================
(PID.TID 0000.0001) // Field hFacC at iteration          0
(PID.TID 0000.0001) // CMIN =          1.000000000000000E+00
(PID.TID 0000.0001) // CMAX =          1.000000000000000E+00
(PID.TID 0000.0001) // CINT =          0.000000000000000E+00
(PID.TID 0000.0001) // SYMBOLS (CMIN->CMAX): -abcdefghijklmnopqrstuvwxyz+
(PID.TID 0000.0001) //                  0.0: .
(PID.TID 0000.0001) // RANGE I (Lo:Hi:Step):(    -1:    92:     1)
(PID.TID 0000.0001) // RANGE J (Lo:Hi:Step):(    42:    -1:    -1)
(PID.TID 0000.0001) // RANGE K (Lo:Hi:Step):(   1:   1:   1)
(PID.TID 0000.0001) // =======================================================
(PID.TID 0000.0001) // =======================================================
(PID.TID 0000.0001) // END OF FIELD                                          =
(PID.TID 0000.0001) // =======================================================
(PID.TID 0000.0001) 
(PID.TID 0000.0001) // =======================================================
(PID.TID 0000.0001) // Field hFacW at iteration          0
(PID.TID 0000.0001) // CMIN =          1.000000000000000E+00
(PID.TID 0000.0001) // CMAX =          1.000000000000000E+00
(PID.TID 0000.0001) // CINT =          0.000000000000000E+00
(PID.TID 0000.0001) // SYMBOLS (CMIN->CMAX): -abcdefghijklmnopqrstuvwxyz+
(PID.TID 0000.0001) //                  0.0: .
(PID.TID 0000.0001) // RANGE I (Lo:Hi:Step):(    -1:    92:     1)
(PID.TID 0000.0001) // RANGE J (Lo:Hi:Step):(    42:    -1:    -1)
(PID.TID 0000.0001) // RANGE K (Lo:Hi:Step):(   1:   1:   1)
(PID.TID 0000.0001) // =======================================================
(PID.TID 0000.0001) // =======================================================
(PID.TID 0000.0001) // END OF FIELD                                          =
(PID.TID 0000.0001) // =======================================================
(PID.TID 0000.0001) 
(PID.TID 0000.0001) // =======================================================
(PID.TID 0000.0001) // Field hFacS at iteration          0
(PID.TID 0000.0001) // CMIN =          1.000000000000000E+00
(PID.TID 0000.0001) // CMAX =          1.000000000000000E+00
(PID.TID 0000.0001) // CINT =          0.000000000000000E+00
(PID.TID 0000.0001) // SYMBOLS (CMIN->CMAX): -abcdefghijklmnopqrstuvwxyz+
(PID.TID 0000.0001) //                  0.0: .
(PID.TID 0000.0001) // RANGE I (Lo:Hi:Step):(    -1:    92:     1)
(PID.TID 0000.0001) // RANGE J (Lo:Hi:Step):(    42:    -1:    -1)
(PID.TID 0000.0001) // RANGE K (Lo:Hi:Step):(   1:   1:   1)
(PID.TID 0000.0001) // =======================================================
(PID.TID 0000.0001) // =======================================================
(PID.TID 0000.0001) // END OF FIELD                                          =
(PID.TID 0000.0001) // =======================================================
(PID.TID 0000.0001) 
(PID.TID 0000.0001) GAD_INIT_FIXED: GAD_OlMinSize=  1  0  1
(PID.TID 0000.0001) 
(PID.TID 0000.0001) // ===================================
(PID.TID 0000.0001) // GAD parameters :
(PID.TID 0000.0001) // ===================================
(PID.TID 0000.0001) tempAdvScheme =   /* Temp. Horiz.Advection scheme selector */
(PID.TID 0000.0001)                       2
(PID.TID 0000.0001)     ;
(PID.TID 0000.0001) tempVertAdvScheme =   /* Temp. Vert. Advection scheme selector */
(PID.TID 0000.0001)                       2
(PID.TID 0000.0001)     ;
(PID.TID 0000.0001) tempMultiDimAdvec =   /* use Muti-Dim Advec method for Temp */
(PID.TID 0000.0001)                   F
(PID.TID 0000.0001)     ;
(PID.TID 0000.0001) tempSOM_Advection = /* use 2nd Order Moment Advection for Temp */
(PID.TID 0000.0001)                   F
(PID.TID 0000.0001)     ;
(PID.TID 0000.0001) AdamsBashforthGt = /* apply Adams-Bashforth extrapolation on Gt */
(PID.TID 0000.0001)                   T
(PID.TID 0000.0001)     ;
(PID.TID 0000.0001) AdamsBashforth_T = /* apply Adams-Bashforth extrapolation on Temp */
(PID.TID 0000.0001)                   F
(PID.TID 0000.0001)     ;
(PID.TID 0000.0001) saltAdvScheme =   /* Salt. Horiz.advection scheme selector */
(PID.TID 0000.0001)                       2
(PID.TID 0000.0001)     ;
(PID.TID 0000.0001) saltVertAdvScheme =   /* Salt. Vert. Advection scheme selector */
(PID.TID 0000.0001)                       2
(PID.TID 0000.0001)     ;
(PID.TID 0000.0001) saltMultiDimAdvec =   /* use Muti-Dim Advec method for Salt */
(PID.TID 0000.0001)                   F
(PID.TID 0000.0001)     ;
(PID.TID 0000.0001) saltSOM_Advection = /* use 2nd Order Moment Advection for Salt */
(PID.TID 0000.0001)                   F
(PID.TID 0000.0001)     ;
(PID.TID 0000.0001) AdamsBashforthGs = /* apply Adams-Bashforth extrapolation on Gs */
(PID.TID 0000.0001)                   T
(PID.TID 0000.0001)     ;
(PID.TID 0000.0001) AdamsBashforth_S = /* apply Adams-Bashforth extrapolation on Salt */
(PID.TID 0000.0001)                   F
(PID.TID 0000.0001)     ;
(PID.TID 0000.0001) // ===================================
(PID.TID 0000.0001) %MON fCori_max                    =   1.4265546244797E-04
(PID.TID 0000.0001) %MON fCori_min                    =  -1.4265546244797E-04
(PID.TID 0000.0001) %MON fCori_mean                   =  -1.2347858075529E-21
(PID.TID 0000.0001) %MON fCori_sd                     =   9.6599226301547E-05
(PID.TID 0000.0001) %MON fCoriG_max                   =   1.4151032568025E-04
(PID.TID 0000.0001) %MON fCoriG_min                   =  -1.4362679550910E-04
(PID.TID 0000.0001) %MON fCoriG_mean                  =  -3.5906698877274E-06
(PID.TID 0000.0001) %MON fCoriG_sd                    =   9.6548915696244E-05
(PID.TID 0000.0001) %MON fCoriCos_max                 =   1.4575362704741E-04
(PID.TID 0000.0001) %MON fCoriCos_min                 =   3.0322354601388E-05
(PID.TID 0000.0001) %MON fCoriCos_mean                =   1.0288600773632E-04
(PID.TID 0000.0001) %MON fCoriCos_sd                  =   3.6784304327266E-05
(PID.TID 0000.0001) INI_CG2D: CG2D normalisation factor =  6.5682677425711703E-05
(PID.TID 0000.0001) 
(PID.TID 0000.0001) // =======================================================
(PID.TID 0000.0001) // Model configuration
(PID.TID 0000.0001) // =======================================================
(PID.TID 0000.0001) //
(PID.TID 0000.0001) // "Physical" paramters ( PARM01 in namelist )
(PID.TID 0000.0001) //
(PID.TID 0000.0001) buoyancyRelation = /* Type of relation to get Buoyancy */
(PID.TID 0000.0001)               'OCEANIC'
(PID.TID 0000.0001)     ;
(PID.TID 0000.0001) fluidIsAir   =  /* fluid major constituent is Air */
(PID.TID 0000.0001)                   F
(PID.TID 0000.0001)     ;
(PID.TID 0000.0001) fluidIsWater =  /* fluid major constituent is Water */
(PID.TID 0000.0001)                   T
(PID.TID 0000.0001)     ;
(PID.TID 0000.0001) usingPCoords =  /* use p (or p*) vertical coordinate */
(PID.TID 0000.0001)                   F
(PID.TID 0000.0001)     ;
(PID.TID 0000.0001) usingZCoords =  /* use z (or z*) vertical coordinate */
(PID.TID 0000.0001)                   T
(PID.TID 0000.0001)     ;
(PID.TID 0000.0001) tRef =   /* Reference temperature profile ( oC or K ) */
(PID.TID 0000.0001)    15 @  2.000000000000000E+01              /* K =  1: 15 */
(PID.TID 0000.0001)     ;
(PID.TID 0000.0001) sRef =   /* Reference salinity profile ( g/kg ) */
(PID.TID 0000.0001)    15 @  3.500000000000000E+01              /* K =  1: 15 */
(PID.TID 0000.0001)     ;
(PID.TID 0000.0001) useStrainTensionVisc= /* Use StrainTension Form of Viscous Operator */
(PID.TID 0000.0001)                   F
(PID.TID 0000.0001)     ;
(PID.TID 0000.0001) useVariableVisc = /* Use variable horizontal viscosity */
(PID.TID 0000.0001)                   F
(PID.TID 0000.0001)     ;
(PID.TID 0000.0001) useHarmonicVisc = /* Use harmonic horizontal viscosity */
(PID.TID 0000.0001)                   T
(PID.TID 0000.0001)     ;
(PID.TID 0000.0001) useBiharmonicVisc= /* Use biharmonic horiz.  viscosity */
(PID.TID 0000.0001)                   F
(PID.TID 0000.0001)     ;
(PID.TID 0000.0001) useSmag3D = /* Use isotropic 3-D Smagorinsky viscosity */
(PID.TID 0000.0001)                   F
(PID.TID 0000.0001)     ;
(PID.TID 0000.0001) viscAh  =   /* Lateral harmonic viscosity ( m^2/s ) */
(PID.TID 0000.0001)                 5.000000000000000E+05
(PID.TID 0000.0001)     ;
(PID.TID 0000.0001) viscA4  =   /* Lateral biharmonic viscosity ( m^4/s ) */
(PID.TID 0000.0001)                 0.000000000000000E+00
(PID.TID 0000.0001)     ;
(PID.TID 0000.0001) no_slip_sides =  /* Viscous BCs: No-slip sides */
(PID.TID 0000.0001)                   T
(PID.TID 0000.0001)     ;
(PID.TID 0000.0001) sideDragFactor = /* side-drag scaling factor (non-dim) */
(PID.TID 0000.0001)                 2.000000000000000E+00
(PID.TID 0000.0001)     ;
(PID.TID 0000.0001) viscArNr = /* vertical profile of vertical viscosity ( m^2/s )*/
(PID.TID 0000.0001)    15 @  1.000000000000000E-03              /* K =  1: 15 */
(PID.TID 0000.0001)     ;
(PID.TID 0000.0001) no_slip_bottom =  /* Viscous BCs: No-slip bottom */
(PID.TID 0000.0001)                   T
(PID.TID 0000.0001)     ;
(PID.TID 0000.0001) bottomVisc_pCell = /* Partial-cell in bottom Visc. BC */
(PID.TID 0000.0001)                   F
(PID.TID 0000.0001)     ;
(PID.TID 0000.0001) bottomDragLinear = /* linear bottom-drag coefficient ( m/s ) */
(PID.TID 0000.0001)                 0.000000000000000E+00
(PID.TID 0000.0001)     ;
(PID.TID 0000.0001) bottomDragQuadratic = /* quadratic bottom-drag coefficient (-) */
(PID.TID 0000.0001)                 0.000000000000000E+00
(PID.TID 0000.0001)     ;
(PID.TID 0000.0001) selectBotDragQuadr = /* select quadratic bottom drag options */
(PID.TID 0000.0001)                      -1
(PID.TID 0000.0001)     ;
(PID.TID 0000.0001) diffKhT =   /* Laplacian diffusion of heat laterally ( m^2/s ) */
(PID.TID 0000.0001)                 0.000000000000000E+00
(PID.TID 0000.0001)     ;
(PID.TID 0000.0001) diffK4T =   /* Biharmonic diffusion of heat laterally ( m^4/s ) */
(PID.TID 0000.0001)                 0.000000000000000E+00
(PID.TID 0000.0001)     ;
(PID.TID 0000.0001) diffKhS =   /* Laplacian diffusion of salt laterally ( m^2/s ) */
(PID.TID 0000.0001)                 0.000000000000000E+00
(PID.TID 0000.0001)     ;
(PID.TID 0000.0001) diffK4S =   /* Biharmonic diffusion of salt laterally ( m^4/s ) */
(PID.TID 0000.0001)                 0.000000000000000E+00
(PID.TID 0000.0001)     ;
(PID.TID 0000.0001) diffKrNrT = /* vertical profile of vertical diffusion of Temp ( m^2/s )*/
(PID.TID 0000.0001)    15 @  3.000000000000000E-05              /* K =  1: 15 */
(PID.TID 0000.0001)     ;
(PID.TID 0000.0001) diffKrNrS = /* vertical profile of vertical diffusion of Salt ( m^2/s )*/
(PID.TID 0000.0001)    15 @  3.000000000000000E-05              /* K =  1: 15 */
(PID.TID 0000.0001)     ;
(PID.TID 0000.0001) diffKrBL79surf = /* Surface diffusion for Bryan and Lewis 79 ( m^2/s ) */
(PID.TID 0000.0001)                 0.000000000000000E+00
(PID.TID 0000.0001)     ;
(PID.TID 0000.0001) diffKrBL79deep = /* Deep diffusion for Bryan and Lewis 1979 ( m^2/s ) */
(PID.TID 0000.0001)                 0.000000000000000E+00
(PID.TID 0000.0001)     ;
(PID.TID 0000.0001) diffKrBL79scl = /* Depth scale for Bryan and Lewis 1979 ( m ) */
(PID.TID 0000.0001)                 2.000000000000000E+02
(PID.TID 0000.0001)     ;
(PID.TID 0000.0001) diffKrBL79Ho = /* Turning depth for Bryan and Lewis 1979 ( m ) */
(PID.TID 0000.0001)                -2.000000000000000E+03
(PID.TID 0000.0001)     ;
(PID.TID 0000.0001) ivdc_kappa = /* Implicit Vertical Diffusivity for Convection ( m^2/s) */
(PID.TID 0000.0001)                 1.000000000000000E+02
(PID.TID 0000.0001)     ;
(PID.TID 0000.0001) hMixCriteria=  /* Criteria for mixed-layer diagnostic */
(PID.TID 0000.0001)                -8.000000000000000E-01
(PID.TID 0000.0001)     ;
(PID.TID 0000.0001) dRhoSmall =  /* Parameter for mixed-layer diagnostic */
(PID.TID 0000.0001)                 1.000000000000000E-06
(PID.TID 0000.0001)     ;
(PID.TID 0000.0001) hMixSmooth=  /* Smoothing parameter for mixed-layer diagnostic */
(PID.TID 0000.0001)                 0.000000000000000E+00
(PID.TID 0000.0001)     ;
(PID.TID 0000.0001) eosType =  /* Type of Equation of State */
(PID.TID 0000.0001)               'JMD95Z'
(PID.TID 0000.0001)     ;
(PID.TID 0000.0001) eosRefP0 = /* Reference atmospheric pressure for EOS ( Pa ) */
(PID.TID 0000.0001)                 1.013250000000000E+05
(PID.TID 0000.0001)     ;
(PID.TID 0000.0001) selectP_inEOS_Zc = /* select pressure to use in EOS (0,1,2,3) */
(PID.TID 0000.0001)                       0
(PID.TID 0000.0001)     0= -g*rhoConst*z ; 1= pRef (from tRef,sRef); 2= Hyd P ; 3= Hyd+NH P
(PID.TID 0000.0001)     ;
(PID.TID 0000.0001) surf_pRef = /* Surface reference pressure ( Pa ) */
(PID.TID 0000.0001)                 1.013250000000000E+05
(PID.TID 0000.0001)     ;
(PID.TID 0000.0001) HeatCapacity_Cp =  /* Specific heat capacity ( J/kg/K ) */
(PID.TID 0000.0001)                 3.994000000000000E+03
(PID.TID 0000.0001)     ;
(PID.TID 0000.0001) celsius2K = /* 0 degree Celsius converted to Kelvin ( K ) */
(PID.TID 0000.0001)                 2.731500000000000E+02
(PID.TID 0000.0001)     ;
(PID.TID 0000.0001) rhoConst  = /* Reference density (Boussinesq)  ( kg/m^3 ) */
(PID.TID 0000.0001)                 1.035000000000000E+03
(PID.TID 0000.0001)     ;
(PID.TID 0000.0001) rhoFacC = /* normalized Reference density @ cell-Center (-) */
(PID.TID 0000.0001)    15 @  1.000000000000000E+00              /* K =  1: 15 */
(PID.TID 0000.0001)     ;
(PID.TID 0000.0001) rhoFacF = /* normalized Reference density @ W-Interface (-) */
(PID.TID 0000.0001)    16 @  1.000000000000000E+00              /* K =  1: 16 */
(PID.TID 0000.0001)     ;
(PID.TID 0000.0001) rhoConstFresh = /* Fresh-water reference density ( kg/m^3 ) */
(PID.TID 0000.0001)                 1.000000000000000E+03
(PID.TID 0000.0001)     ;
(PID.TID 0000.0001) gravity =   /* Gravitational acceleration ( m/s^2 ) */
(PID.TID 0000.0001)                 9.810000000000000E+00
(PID.TID 0000.0001)     ;
(PID.TID 0000.0001) gBaro =   /* Barotropic gravity ( m/s^2 ) */
(PID.TID 0000.0001)                 9.810000000000000E+00
(PID.TID 0000.0001)     ;
(PID.TID 0000.0001) gravFacC = /* gravity factor (vs surf.) @ cell-Center (-) */
(PID.TID 0000.0001)    15 @  1.000000000000000E+00              /* K =  1: 15 */
(PID.TID 0000.0001)     ;
(PID.TID 0000.0001) gravFacF = /* gravity factor (vs surf.) @ W-Interface (-) */
(PID.TID 0000.0001)    16 @  1.000000000000000E+00              /* K =  1: 16 */
(PID.TID 0000.0001)     ;
(PID.TID 0000.0001) rotationPeriod =   /* Rotation Period ( s ) */
(PID.TID 0000.0001)                 8.616400000000000E+04
(PID.TID 0000.0001)     ;
(PID.TID 0000.0001) omega =   /* Angular velocity ( rad/s ) */
(PID.TID 0000.0001)                 7.292123516990375E-05
(PID.TID 0000.0001)     ;
(PID.TID 0000.0001) f0 =   /* Reference coriolis parameter ( 1/s ) */
(PID.TID 0000.0001)                 1.000000000000000E-04
(PID.TID 0000.0001)     ;
(PID.TID 0000.0001) beta =   /* Beta ( 1/(m.s) ) */
(PID.TID 0000.0001)                 9.999999999999999E-12
(PID.TID 0000.0001)     ;
(PID.TID 0000.0001) fPrime =   /* Second coriolis parameter ( 1/s ) */
(PID.TID 0000.0001)                 0.000000000000000E+00
(PID.TID 0000.0001)     ;
(PID.TID 0000.0001) rigidLid =   /* Rigid lid on/off flag */
(PID.TID 0000.0001)                   F
(PID.TID 0000.0001)     ;
(PID.TID 0000.0001) implicitFreeSurface =   /* Implicit free surface on/off flag */
(PID.TID 0000.0001)                   T
(PID.TID 0000.0001)     ;
(PID.TID 0000.0001) freeSurfFac =   /* Implicit free surface factor */
(PID.TID 0000.0001)                 1.000000000000000E+00
(PID.TID 0000.0001)     ;
(PID.TID 0000.0001) implicSurfPress =  /* Surface Pressure implicit factor (0-1) */
(PID.TID 0000.0001)                 1.000000000000000E+00
(PID.TID 0000.0001)     ;
(PID.TID 0000.0001) implicDiv2DFlow =  /* Barot. Flow Div. implicit factor (0-1) */
(PID.TID 0000.0001)                 1.000000000000000E+00
(PID.TID 0000.0001)     ;
(PID.TID 0000.0001) uniformLin_PhiSurf = /* use uniform Bo_surf on/off flag */
(PID.TID 0000.0001)                   T
(PID.TID 0000.0001)     ;
(PID.TID 0000.0001) uniformFreeSurfLev = /* free-surface level-index is uniform */
(PID.TID 0000.0001)                   T
(PID.TID 0000.0001)     ;
(PID.TID 0000.0001) sIceLoadFac =  /* scale factor for sIceLoad (0-1) */
(PID.TID 0000.0001)                 1.000000000000000E+00
(PID.TID 0000.0001)     ;
(PID.TID 0000.0001) hFacMin =   /* minimum partial cell factor (hFac) */
(PID.TID 0000.0001)                 5.000000000000000E-02
(PID.TID 0000.0001)     ;
(PID.TID 0000.0001) hFacMinDr = /* minimum partial cell thickness ( m) */
(PID.TID 0000.0001)                 5.000000000000000E+01
(PID.TID 0000.0001)     ;
(PID.TID 0000.0001) exactConserv =  /* Exact Volume Conservation on/off flag */
(PID.TID 0000.0001)                   T
(PID.TID 0000.0001)     ;
(PID.TID 0000.0001) linFSConserveTr = /* Tracer correction for Lin Free Surface on/off flag */
(PID.TID 0000.0001)                   F
(PID.TID 0000.0001)     ;
(PID.TID 0000.0001) nonlinFreeSurf = /* Non-linear Free Surf. options (-1,0,1,2,3)*/
(PID.TID 0000.0001)                       0
(PID.TID 0000.0001)      -1,0= Off ; 1,2,3= On, 2=+rescale gU,gV, 3=+update cg2d solv.
(PID.TID 0000.0001)     ;
(PID.TID 0000.0001) hFacInf =   /* lower threshold for hFac (nonlinFreeSurf only)*/
(PID.TID 0000.0001)                 2.000000000000000E-01
(PID.TID 0000.0001)     ;
(PID.TID 0000.0001) hFacSup =   /* upper threshold for hFac (nonlinFreeSurf only)*/
(PID.TID 0000.0001)                 2.000000000000000E+00
(PID.TID 0000.0001)     ;
(PID.TID 0000.0001) select_rStar = /* r* Vertical coord. options (=0 r coord.; >0 uses r*)*/
(PID.TID 0000.0001)                       0
(PID.TID 0000.0001)     ;
(PID.TID 0000.0001) useRealFreshWaterFlux = /* Real Fresh Water Flux on/off flag*/
(PID.TID 0000.0001)                   T
(PID.TID 0000.0001)     ;
(PID.TID 0000.0001) temp_EvPrRn = /* Temp. of Evap/Prec/R (UNSET=use local T)(oC)*/
(PID.TID 0000.0001)                 1.234567000000000E+05
(PID.TID 0000.0001)     ;
(PID.TID 0000.0001) salt_EvPrRn = /* Salin. of Evap/Prec/R (UNSET=use local S)(g/kg)*/
(PID.TID 0000.0001)                 0.000000000000000E+00
(PID.TID 0000.0001)     ;
(PID.TID 0000.0001) selectAddFluid = /* option for mass source/sink of fluid (=0: off) */
(PID.TID 0000.0001)                       0
(PID.TID 0000.0001)     ;
(PID.TID 0000.0001) temp_addMass = /* Temp. of addMass array (UNSET=use local T)(oC)*/
(PID.TID 0000.0001)                 1.234567000000000E+05
(PID.TID 0000.0001)     ;
(PID.TID 0000.0001) salt_addMass = /* Salin. of addMass array (UNSET=use local S)(g/kg)*/
(PID.TID 0000.0001)                 0.000000000000000E+00
(PID.TID 0000.0001)     ;
(PID.TID 0000.0001) convertFW2Salt = /* convert F.W. Flux to Salt Flux (-1=use local S)(g/kg)*/
(PID.TID 0000.0001)                -1.000000000000000E+00
(PID.TID 0000.0001)     ;
(PID.TID 0000.0001) use3Dsolver = /* use 3-D pressure solver on/off flag */
(PID.TID 0000.0001)                   F
(PID.TID 0000.0001)     ;
(PID.TID 0000.0001) nonHydrostatic =  /* Non-Hydrostatic on/off flag */
(PID.TID 0000.0001)                   F
(PID.TID 0000.0001)     ;
(PID.TID 0000.0001) nh_Am2 = /* Non-Hydrostatic terms scaling factor */
(PID.TID 0000.0001)                 1.000000000000000E+00
(PID.TID 0000.0001)     ;
(PID.TID 0000.0001) implicitNHPress = /* Non-Hyd Pressure implicit factor (0-1)*/
(PID.TID 0000.0001)                 1.000000000000000E+00
(PID.TID 0000.0001)     ;
(PID.TID 0000.0001) selectNHfreeSurf = /* Non-Hyd (free-)Surface option */
(PID.TID 0000.0001)                       0
(PID.TID 0000.0001)     ;
(PID.TID 0000.0001) quasiHydrostatic = /* Quasi-Hydrostatic on/off flag */
(PID.TID 0000.0001)                   F
(PID.TID 0000.0001)     ;
(PID.TID 0000.0001) calc_wVelocity = /* vertical velocity calculation on/off flag */
(PID.TID 0000.0001)                   T
(PID.TID 0000.0001)     ;
(PID.TID 0000.0001) momStepping =  /* Momentum equation on/off flag */
(PID.TID 0000.0001)                   T
(PID.TID 0000.0001)     ;
(PID.TID 0000.0001) vectorInvariantMomentum= /* Vector-Invariant Momentum on/off */
(PID.TID 0000.0001)                   F
(PID.TID 0000.0001)     ;
(PID.TID 0000.0001) momAdvection =  /* Momentum advection on/off flag */
(PID.TID 0000.0001)                   T
(PID.TID 0000.0001)     ;
(PID.TID 0000.0001) momViscosity =  /* Momentum viscosity on/off flag */
(PID.TID 0000.0001)                   T
(PID.TID 0000.0001)     ;
(PID.TID 0000.0001) momImplVertAdv= /* Momentum implicit vert. advection on/off*/
(PID.TID 0000.0001)                   F
(PID.TID 0000.0001)     ;
(PID.TID 0000.0001) implicitViscosity = /* Implicit viscosity on/off flag */
(PID.TID 0000.0001)                   F
(PID.TID 0000.0001)     ;
(PID.TID 0000.0001) selectImplicitDrag= /* Implicit bot Drag options (0,1,2)*/
(PID.TID 0000.0001)                       0
(PID.TID 0000.0001)     0= Expl. ; 1= Impl. on provis. Vel ; 2= Fully Impl (with surf.P)
(PID.TID 0000.0001)     ;
(PID.TID 0000.0001) metricTerms =  /* metric-Terms on/off flag */
(PID.TID 0000.0001)                   T
(PID.TID 0000.0001)     ;
(PID.TID 0000.0001) useNHMTerms = /* Non-Hydrostatic Metric-Terms on/off */
(PID.TID 0000.0001)                   F
(PID.TID 0000.0001)     ;
(PID.TID 0000.0001) selectCoriMap = /* Coriolis Map options (0,1,2,3)*/
(PID.TID 0000.0001)                       2
(PID.TID 0000.0001)     0= f-Plane ; 1= Beta-Plane ; 2= Spherical ; 3= read from file
(PID.TID 0000.0001)     ;
(PID.TID 0000.0001) use3dCoriolis = /* 3-D Coriolis on/off flag */
(PID.TID 0000.0001)                   F
(PID.TID 0000.0001)     ;
(PID.TID 0000.0001) useCoriolis =  /* Coriolis on/off flag */
(PID.TID 0000.0001)                   T
(PID.TID 0000.0001)     ;
(PID.TID 0000.0001) useCDscheme =  /* CD scheme on/off flag */
(PID.TID 0000.0001)                   T
(PID.TID 0000.0001)     ;
(PID.TID 0000.0001) selectCoriScheme= /* Scheme selector for Coriolis-Term */
(PID.TID 0000.0001)                       0
(PID.TID 0000.0001)    = 0 : original discretization (simple averaging, no hFac)
(PID.TID 0000.0001)    = 1 : Wet-point averaging (Jamar & Ozer 1986)
(PID.TID 0000.0001)    = 2 : energy conserving scheme (no hFac weight)
(PID.TID 0000.0001)    = 3 : energy conserving scheme using Wet-point averaging
(PID.TID 0000.0001)     ;
(PID.TID 0000.0001) momForcing =  /* Momentum forcing on/off flag */
(PID.TID 0000.0001)                   T
(PID.TID 0000.0001)     ;
(PID.TID 0000.0001) momTidalForcing = /* Momentum Tidal forcing on/off flag */
(PID.TID 0000.0001)                   T
(PID.TID 0000.0001)     ;
(PID.TID 0000.0001) momPressureForcing =  /* Momentum pressure term on/off flag */
(PID.TID 0000.0001)                   T
(PID.TID 0000.0001)     ;
(PID.TID 0000.0001) implicitIntGravWave= /* Implicit Internal Gravity Wave flag */
(PID.TID 0000.0001)                   F
(PID.TID 0000.0001)     ;
(PID.TID 0000.0001) staggerTimeStep =    /* Stagger time stepping on/off flag */
(PID.TID 0000.0001)                   F
(PID.TID 0000.0001)     ;
(PID.TID 0000.0001) doResetHFactors = /* reset thickness factors @ each time-step */
(PID.TID 0000.0001)                   F
(PID.TID 0000.0001)     ;
(PID.TID 0000.0001) multiDimAdvection =  /* enable/disable Multi-Dim Advection */
(PID.TID 0000.0001)                   T
(PID.TID 0000.0001)     ;
(PID.TID 0000.0001) useMultiDimAdvec =   /* Multi-Dim Advection is/is-not used */
(PID.TID 0000.0001)                   F
(PID.TID 0000.0001)     ;
(PID.TID 0000.0001) implicitDiffusion = /* Implicit Diffusion on/off flag */
(PID.TID 0000.0001)                   T
(PID.TID 0000.0001)     ;
(PID.TID 0000.0001) tempStepping =  /* Temperature equation on/off flag */
(PID.TID 0000.0001)                   T
(PID.TID 0000.0001)     ;
(PID.TID 0000.0001) tempAdvection = /* Temperature advection on/off flag */
(PID.TID 0000.0001)                   T
(PID.TID 0000.0001)     ;
(PID.TID 0000.0001) tempImplVertAdv = /* Temp. implicit vert. advection on/off */
(PID.TID 0000.0001)                   F
(PID.TID 0000.0001)     ;
(PID.TID 0000.0001) tempForcing  =  /* Temperature forcing on/off flag */
(PID.TID 0000.0001)                   T
(PID.TID 0000.0001)     ;
(PID.TID 0000.0001) doThetaClimRelax = /* apply SST relaxation on/off flag */
(PID.TID 0000.0001)                   F
(PID.TID 0000.0001)     ;
(PID.TID 0000.0001) tempIsActiveTr = /* Temp. is a dynamically Active Tracer */
(PID.TID 0000.0001)                   T
(PID.TID 0000.0001)     ;
(PID.TID 0000.0001) saltStepping =  /* Salinity equation on/off flag */
(PID.TID 0000.0001)                   T
(PID.TID 0000.0001)     ;
(PID.TID 0000.0001) saltAdvection = /* Salinity advection on/off flag */
(PID.TID 0000.0001)                   T
(PID.TID 0000.0001)     ;
(PID.TID 0000.0001) saltImplVertAdv = /* Sali. implicit vert. advection on/off */
(PID.TID 0000.0001)                   F
(PID.TID 0000.0001)     ;
(PID.TID 0000.0001) saltForcing  =  /* Salinity forcing on/off flag */
(PID.TID 0000.0001)                   T
(PID.TID 0000.0001)     ;
(PID.TID 0000.0001) doSaltClimRelax = /* apply SSS relaxation on/off flag */
(PID.TID 0000.0001)                   F
(PID.TID 0000.0001)     ;
(PID.TID 0000.0001) saltIsActiveTr = /* Salt  is a dynamically Active Tracer */
(PID.TID 0000.0001)                   T
(PID.TID 0000.0001)     ;
(PID.TID 0000.0001)  readBinaryPrec = /* Precision used for reading binary files */
(PID.TID 0000.0001)                      32
(PID.TID 0000.0001)     ;
(PID.TID 0000.0001) writeBinaryPrec = /* Precision used for writing binary files */
(PID.TID 0000.0001)                      32
(PID.TID 0000.0001)     ;
(PID.TID 0000.0001)  rwSuffixType =   /* select format of mds file suffix */
(PID.TID 0000.0001)                       0
(PID.TID 0000.0001)    = 0 : myIter (I10.10) ;   = 1 : 100*myTime (100th sec) ;
(PID.TID 0000.0001)    = 2 : myTime (seconds);   = 3 : myTime/360 (10th of hr);
(PID.TID 0000.0001)    = 4 : myTime/3600 (hours)
(PID.TID 0000.0001)     ;
(PID.TID 0000.0001)  globalFiles = /* write "global" (=not per tile) files */
(PID.TID 0000.0001)                   F
(PID.TID 0000.0001)     ;
(PID.TID 0000.0001)  useSingleCpuIO = /* only master MPI process does I/O */
(PID.TID 0000.0001)                   T
(PID.TID 0000.0001)     ;
(PID.TID 0000.0001)  useSingleCpuInput = /* only master process reads input */
(PID.TID 0000.0001)                   T
(PID.TID 0000.0001)     ;
(PID.TID 0000.0001) /* debLev[*]  : level of debug & auxiliary message printing */
(PID.TID 0000.0001) debLevZero =  0 ; /* level of disabled aux. msg printing */
(PID.TID 0000.0001)    debLevA =  1 ; /* level of minimum  aux. msg printing */
(PID.TID 0000.0001)    debLevB =  2 ; /* level of low aux. print (report read-file opening)*/
(PID.TID 0000.0001)    debLevC =  3 ; /* level of moderate debug prt (most pkgs debug msg) */
(PID.TID 0000.0001)    debLevD =  4 ; /* level of enhanced debug prt (add DEBUG_STATS prt) */
(PID.TID 0000.0001)    debLevE =  5 ; /* level of extensive debug printing */
(PID.TID 0000.0001) debugLevel =  /* select debug printing level */
(PID.TID 0000.0001)                       5
(PID.TID 0000.0001)     ;
(PID.TID 0000.0001)  plotLevel =  /* select PLOT_FIELD printing level */
(PID.TID 0000.0001)                       5
(PID.TID 0000.0001)     ;
(PID.TID 0000.0001) //
(PID.TID 0000.0001) // Elliptic solver(s) paramters ( PARM02 in namelist )
(PID.TID 0000.0001) //
(PID.TID 0000.0001) cg2dMaxIters =   /* Upper limit on 2d con. grad iterations  */
(PID.TID 0000.0001)                     500
(PID.TID 0000.0001)     ;
(PID.TID 0000.0001) cg2dMinItersNSA =   /* Minimum number of iterations of 2d con. grad solver  */
(PID.TID 0000.0001)                       0
(PID.TID 0000.0001)     ;
(PID.TID 0000.0001) cg2dUseMinResSol= /* use cg2d last-iter(=0) / min-resid.(=1) solution */
(PID.TID 0000.0001)                       0
(PID.TID 0000.0001)     ;
(PID.TID 0000.0001) cg2dTargetResidual =   /* 2d con. grad target residual  */
(PID.TID 0000.0001)                 1.000000000000000E-13
(PID.TID 0000.0001)     ;
(PID.TID 0000.0001) cg2dTargetResWunit =   /* CG2d target residual [W units] */
(PID.TID 0000.0001)                -1.000000000000000E+00
(PID.TID 0000.0001)     ;
(PID.TID 0000.0001) cg2dPreCondFreq =   /* Freq. for updating cg2d preconditioner */
(PID.TID 0000.0001)                       1
(PID.TID 0000.0001)     ;
(PID.TID 0000.0001) useSRCGSolver =  /* use single reduction CG solver(s) */
(PID.TID 0000.0001)                   F
(PID.TID 0000.0001)     ;
(PID.TID 0000.0001) useNSACGSolver =  /* use not-self-adjoint CG solver */
(PID.TID 0000.0001)                   F
(PID.TID 0000.0001)     ;
(PID.TID 0000.0001) printResidualFreq = /* Freq. for printing CG residual */
(PID.TID 0000.0001)                       1
(PID.TID 0000.0001)     ;
(PID.TID 0000.0001) //
(PID.TID 0000.0001) // Time stepping paramters ( PARM03 in namelist )
(PID.TID 0000.0001) //
(PID.TID 0000.0001) deltaTMom =   /* Momentum equation timestep ( s ) */
(PID.TID 0000.0001)                 1.800000000000000E+03
(PID.TID 0000.0001)     ;
(PID.TID 0000.0001) deltaTFreeSurf = /* FreeSurface equation timestep ( s ) */
(PID.TID 0000.0001)                 8.640000000000000E+04
(PID.TID 0000.0001)     ;
(PID.TID 0000.0001) dTtracerLev =  /* Tracer equation timestep ( s ) */
(PID.TID 0000.0001)    15 @  8.640000000000000E+04              /* K =  1: 15 */
(PID.TID 0000.0001)     ;
(PID.TID 0000.0001) deltaTClock  =   /* Model clock timestep ( s ) */
(PID.TID 0000.0001)                 8.640000000000000E+04
(PID.TID 0000.0001)     ;
(PID.TID 0000.0001) cAdjFreq =   /* Convective adjustment interval ( s ) */
(PID.TID 0000.0001)                 0.000000000000000E+00
(PID.TID 0000.0001)     ;
(PID.TID 0000.0001) momForcingOutAB = /* =1: take Momentum Forcing out of Adams-Bash. stepping */
(PID.TID 0000.0001)                       0
(PID.TID 0000.0001)     ;
(PID.TID 0000.0001) tracForcingOutAB = /* =1: take T,S,pTr Forcing out of Adams-Bash. stepping */
(PID.TID 0000.0001)                       0
(PID.TID 0000.0001)     ;
(PID.TID 0000.0001) momDissip_In_AB = /* put Dissipation Tendency in Adams-Bash. stepping */
(PID.TID 0000.0001)                   T
(PID.TID 0000.0001)     ;
(PID.TID 0000.0001) doAB_onGtGs = /* apply AB on Tendencies (rather than on T,S)*/
(PID.TID 0000.0001)                   T
(PID.TID 0000.0001)     ;
(PID.TID 0000.0001) abEps =   /* Adams-Bashforth-2 stabilizing weight */
(PID.TID 0000.0001)                 1.000000000000000E-01
(PID.TID 0000.0001)     ;
(PID.TID 0000.0001) applyExchUV_early = /* Apply EXCH to U,V earlier in time-step */
(PID.TID 0000.0001)                   F
(PID.TID 0000.0001)     ;
(PID.TID 0000.0001) tauCD =   /* CD coupling time-scale ( s ) */
(PID.TID 0000.0001)                 3.214280000000000E+05
(PID.TID 0000.0001)     ;
(PID.TID 0000.0001) rCD =   /* Normalised CD coupling parameter */
(PID.TID 0000.0001)                 9.943999900444267E-01
(PID.TID 0000.0001)     ;
(PID.TID 0000.0001) epsAB_CD = /* AB-2 stabilizing weight for CD-scheme*/
(PID.TID 0000.0001)                 1.000000000000000E-01
(PID.TID 0000.0001)     ;
(PID.TID 0000.0001) pickupStrictlyMatch= /* stop if pickup do not strictly match */
(PID.TID 0000.0001)                   T
(PID.TID 0000.0001)     ;
(PID.TID 0000.0001) nIter0   =   /* Run starting timestep number */
(PID.TID 0000.0001)                       0
(PID.TID 0000.0001)     ;
(PID.TID 0000.0001) nTimeSteps = /* Number of timesteps */
(PID.TID 0000.0001)                     100
(PID.TID 0000.0001)     ;
(PID.TID 0000.0001) nEndIter =   /* Run ending timestep number */
(PID.TID 0000.0001)                     100
(PID.TID 0000.0001)     ;
(PID.TID 0000.0001) baseTime =   /* Model base time ( s ) */
(PID.TID 0000.0001)                 0.000000000000000E+00
(PID.TID 0000.0001)     ;
(PID.TID 0000.0001) startTime =  /* Run start time ( s ) */
(PID.TID 0000.0001)                 0.000000000000000E+00
(PID.TID 0000.0001)     ;
(PID.TID 0000.0001) endTime  =   /* Integration ending time ( s ) */
(PID.TID 0000.0001)                 8.640000000000000E+06
(PID.TID 0000.0001)     ;
(PID.TID 0000.0001) pChkPtFreq = /* Permanent restart/pickup file interval ( s ) */
(PID.TID 0000.0001)                 8.640000000000000E+05
(PID.TID 0000.0001)     ;
(PID.TID 0000.0001) chkPtFreq  = /* Rolling restart/pickup file interval ( s ) */
(PID.TID 0000.0001)                 0.000000000000000E+00
(PID.TID 0000.0001)     ;
(PID.TID 0000.0001) pickup_write_mdsio =   /* Model IO flag. */
(PID.TID 0000.0001)                   T
(PID.TID 0000.0001)     ;
(PID.TID 0000.0001) pickup_read_mdsio =   /* Model IO flag. */
(PID.TID 0000.0001)                   T
(PID.TID 0000.0001)     ;
(PID.TID 0000.0001) pickup_write_mnc =   /* Model IO flag. */
(PID.TID 0000.0001)                   F
(PID.TID 0000.0001)     ;
(PID.TID 0000.0001) pickup_read_mnc =   /* Model IO flag. */
(PID.TID 0000.0001)                   F
(PID.TID 0000.0001)     ;
(PID.TID 0000.0001) writePickupAtEnd =   /* Model IO flag. */
(PID.TID 0000.0001)                   T
(PID.TID 0000.0001)     ;
(PID.TID 0000.0001) dumpFreq =   /* Model state write out interval ( s ). */
(PID.TID 0000.0001)                 8.640000000000000E+05
(PID.TID 0000.0001)     ;
(PID.TID 0000.0001) dumpInitAndLast= /* write out Initial & Last iter. model state */
(PID.TID 0000.0001)                   T
(PID.TID 0000.0001)     ;
(PID.TID 0000.0001) snapshot_mdsio =   /* Model IO flag. */
(PID.TID 0000.0001)                   T
(PID.TID 0000.0001)     ;
(PID.TID 0000.0001) snapshot_mnc =   /* Model IO flag. */
(PID.TID 0000.0001)                   F
(PID.TID 0000.0001)     ;
(PID.TID 0000.0001) monitorFreq =   /* Monitor output interval ( s ). */
(PID.TID 0000.0001)                 1.000000000000000E+00
(PID.TID 0000.0001)     ;
(PID.TID 0000.0001) monitorSelect = /* select group of variables to monitor */
(PID.TID 0000.0001)                       3
(PID.TID 0000.0001)     ;
(PID.TID 0000.0001) monitor_stdio =   /* Model IO flag. */
(PID.TID 0000.0001)                   T
(PID.TID 0000.0001)     ;
(PID.TID 0000.0001) monitor_mnc =   /* Model IO flag. */
(PID.TID 0000.0001)                   F
(PID.TID 0000.0001)     ;
(PID.TID 0000.0001) externForcingPeriod =   /* forcing period (s) */
(PID.TID 0000.0001)                 2.592000000000000E+06
(PID.TID 0000.0001)     ;
(PID.TID 0000.0001) externForcingCycle =   /* period of the cyle (s). */
(PID.TID 0000.0001)                 3.110400000000000E+07
(PID.TID 0000.0001)     ;
(PID.TID 0000.0001) tauThetaClimRelax =   /* relaxation time scale (s) */
(PID.TID 0000.0001)                 0.000000000000000E+00
(PID.TID 0000.0001)     ;
(PID.TID 0000.0001) tauSaltClimRelax =   /* relaxation time scale (s) */
(PID.TID 0000.0001)                 0.000000000000000E+00
(PID.TID 0000.0001)     ;
(PID.TID 0000.0001) latBandClimRelax =   /* max. Lat. where relaxation */
(PID.TID 0000.0001)                 1.800000000000000E+02
(PID.TID 0000.0001)     ;
(PID.TID 0000.0001) //
(PID.TID 0000.0001) // Gridding paramters ( PARM04 in namelist )
(PID.TID 0000.0001) //
(PID.TID 0000.0001) usingCartesianGrid = /* Cartesian coordinates flag ( True/False ) */
(PID.TID 0000.0001)                   F
(PID.TID 0000.0001)     ;
(PID.TID 0000.0001) usingCylindricalGrid = /* Cylindrical coordinates flag ( True/False ) */
(PID.TID 0000.0001)                   F
(PID.TID 0000.0001)     ;
(PID.TID 0000.0001) usingSphericalPolarGrid = /* Spherical coordinates flag ( True/False ) */
(PID.TID 0000.0001)                   T
(PID.TID 0000.0001)     ;
(PID.TID 0000.0001) usingCurvilinearGrid = /* Curvilinear coordinates flag ( True/False ) */
(PID.TID 0000.0001)                   F
(PID.TID 0000.0001)     ;
(PID.TID 0000.0001) useMin4hFacEdges = /* set hFacW,S as minimum of adjacent hFacC factor */
(PID.TID 0000.0001)                   F
(PID.TID 0000.0001)     ;
(PID.TID 0000.0001) interViscAr_pCell = /* account for partial-cell in interior vert. viscosity */
(PID.TID 0000.0001)                   F
(PID.TID 0000.0001)     ;
(PID.TID 0000.0001) interDiffKr_pCell = /* account for partial-cell in interior vert. diffusion */
(PID.TID 0000.0001)                   F
(PID.TID 0000.0001)     ;
(PID.TID 0000.0001) pCellMix_select = /* option to enhance mixing near surface & bottom */
(PID.TID 0000.0001)                       0
(PID.TID 0000.0001)     ;
(PID.TID 0000.0001) selectSigmaCoord = /* Hybrid-Sigma Vert. Coordinate option */
(PID.TID 0000.0001)                       0
(PID.TID 0000.0001)     ;
(PID.TID 0000.0001) rSigmaBnd = /* r/sigma transition ( units of r ==  m ) */
(PID.TID 0000.0001)                 1.234567000000000E+05
(PID.TID 0000.0001)     ;
(PID.TID 0000.0001) rkSign =   /* index orientation relative to vertical coordinate */
(PID.TID 0000.0001)                -1.000000000000000E+00
(PID.TID 0000.0001)     ;
(PID.TID 0000.0001) gravitySign = /* gravity orientation relative to vertical coordinate */
(PID.TID 0000.0001)                -1.000000000000000E+00
(PID.TID 0000.0001)     ;
(PID.TID 0000.0001) seaLev_Z =  /* reference height of sea-level [m] */
(PID.TID 0000.0001)                 0.000000000000000E+00
(PID.TID 0000.0001)     ;
(PID.TID 0000.0001) top_Pres =  /* reference pressure at the top [Pa] */
(PID.TID 0000.0001)                 0.000000000000000E+00
(PID.TID 0000.0001)     ;
(PID.TID 0000.0001) mass2rUnit = /* convert mass per unit area [kg/m2] to r-units [m] */
(PID.TID 0000.0001)                 9.661835748792270E-04
(PID.TID 0000.0001)     ;
(PID.TID 0000.0001) rUnit2mass = /* convert r-units [m] to mass per unit area [kg/m2] */
(PID.TID 0000.0001)                 1.035000000000000E+03
(PID.TID 0000.0001)     ;
(PID.TID 0000.0001) drC =   /* C spacing ( units of r ) */
(PID.TID 0000.0001)                 2.500000000000000E+01,      /* K =  1 */
(PID.TID 0000.0001)                 6.000000000000000E+01,      /* K =  2 */
(PID.TID 0000.0001)                 8.500000000000000E+01,      /* K =  3 */
(PID.TID 0000.0001)                 1.200000000000000E+02,      /* K =  4 */
(PID.TID 0000.0001)                 1.650000000000000E+02,      /* K =  5 */
(PID.TID 0000.0001)                 2.150000000000000E+02,      /* K =  6 */
(PID.TID 0000.0001)                 2.650000000000000E+02,      /* K =  7 */
(PID.TID 0000.0001)                 3.150000000000000E+02,      /* K =  8 */
(PID.TID 0000.0001)                 3.650000000000000E+02,      /* K =  9 */
(PID.TID 0000.0001)                 4.150000000000000E+02,      /* K = 10 */
(PID.TID 0000.0001)                 4.650000000000000E+02,      /* K = 11 */
(PID.TID 0000.0001)                 5.150000000000000E+02,      /* K = 12 */
(PID.TID 0000.0001)                 5.650000000000000E+02,      /* K = 13 */
(PID.TID 0000.0001)                 6.150000000000000E+02,      /* K = 14 */
(PID.TID 0000.0001)                 6.650000000000000E+02,      /* K = 15 */
(PID.TID 0000.0001)                 3.450000000000000E+02       /* K = 16 */
(PID.TID 0000.0001)     ;
(PID.TID 0000.0001) drF =   /* W spacing ( units of r ) */
(PID.TID 0000.0001)                 5.000000000000000E+01,      /* K =  1 */
(PID.TID 0000.0001)                 7.000000000000000E+01,      /* K =  2 */
(PID.TID 0000.0001)                 1.000000000000000E+02,      /* K =  3 */
(PID.TID 0000.0001)                 1.400000000000000E+02,      /* K =  4 */
(PID.TID 0000.0001)                 1.900000000000000E+02,      /* K =  5 */
(PID.TID 0000.0001)                 2.400000000000000E+02,      /* K =  6 */
(PID.TID 0000.0001)                 2.900000000000000E+02,      /* K =  7 */
(PID.TID 0000.0001)                 3.400000000000000E+02,      /* K =  8 */
(PID.TID 0000.0001)                 3.900000000000000E+02,      /* K =  9 */
(PID.TID 0000.0001)                 4.400000000000000E+02,      /* K = 10 */
(PID.TID 0000.0001)                 4.900000000000000E+02,      /* K = 11 */
(PID.TID 0000.0001)                 5.400000000000000E+02,      /* K = 12 */
(PID.TID 0000.0001)                 5.900000000000000E+02,      /* K = 13 */
(PID.TID 0000.0001)                 6.400000000000000E+02,      /* K = 14 */
(PID.TID 0000.0001)                 6.900000000000000E+02       /* K = 15 */
(PID.TID 0000.0001)     ;
(PID.TID 0000.0001) delX = /* U spacing ( m - cartesian, degrees - spherical ) */
(PID.TID 0000.0001)    90 @  4.000000000000000E+00              /* I =  1: 90 */
(PID.TID 0000.0001)     ;
(PID.TID 0000.0001) delY = /* V spacing ( m - cartesian, degrees - spherical ) */
(PID.TID 0000.0001)    40 @  4.000000000000000E+00              /* J =  1: 40 */
(PID.TID 0000.0001)     ;
(PID.TID 0000.0001) xgOrigin = /* X-axis origin of West  edge (cartesian: m, lat-lon: deg) */
(PID.TID 0000.0001)                 0.000000000000000E+00
(PID.TID 0000.0001)     ;
(PID.TID 0000.0001) ygOrigin = /* Y-axis origin of South edge (cartesian: m, lat-lon: deg) */
(PID.TID 0000.0001)                -8.000000000000000E+01
(PID.TID 0000.0001)     ;
(PID.TID 0000.0001) rSphere =  /* Radius ( ignored - cartesian, m - spherical ) */
(PID.TID 0000.0001)                 6.370000000000000E+06
(PID.TID 0000.0001)     ;
(PID.TID 0000.0001) deepAtmosphere = /* Deep/Shallow Atmosphere flag (True/False) */
(PID.TID 0000.0001)                   F
(PID.TID 0000.0001)     ;
(PID.TID 0000.0001) xC =  /* xC(:,1,:,1) : P-point X coord ( deg. or m if cartesian) */
(PID.TID 0000.0001)                 2.000000000000000E+00,      /* I =  1 */
(PID.TID 0000.0001)                 6.000000000000000E+00,      /* I =  2 */
(PID.TID 0000.0001)                 1.000000000000000E+01,      /* I =  3 */
(PID.TID 0000.0001)      . . .
(PID.TID 0000.0001)                 8.200000000000000E+01,      /* I = 21 */
(PID.TID 0000.0001)                 8.600000000000000E+01,      /* I = 22 */
(PID.TID 0000.0001)                 9.000000000000000E+01,      /* I = 23 */
(PID.TID 0000.0001)                 9.400000000000000E+01,      /* I = 24 */
(PID.TID 0000.0001)                 9.800000000000000E+01,      /* I = 25 */
(PID.TID 0000.0001)                 1.020000000000000E+02,      /* I = 26 */
(PID.TID 0000.0001)      . . .
(PID.TID 0000.0001)                 1.700000000000000E+02,      /* I = 43 */
(PID.TID 0000.0001)                 1.740000000000000E+02,      /* I = 44 */
(PID.TID 0000.0001)                 1.780000000000000E+02,      /* I = 45 */
(PID.TID 0000.0001)                 1.820000000000000E+02,      /* I = 46 */
(PID.TID 0000.0001)                 1.860000000000000E+02,      /* I = 47 */
(PID.TID 0000.0001)                 1.900000000000000E+02,      /* I = 48 */
(PID.TID 0000.0001)      . . .
(PID.TID 0000.0001)                 2.580000000000000E+02,      /* I = 65 */
(PID.TID 0000.0001)                 2.620000000000000E+02,      /* I = 66 */
(PID.TID 0000.0001)                 2.660000000000000E+02,      /* I = 67 */
(PID.TID 0000.0001)                 2.700000000000000E+02,      /* I = 68 */
(PID.TID 0000.0001)                 2.740000000000000E+02,      /* I = 69 */
(PID.TID 0000.0001)                 2.780000000000000E+02,      /* I = 70 */
(PID.TID 0000.0001)      . . .
(PID.TID 0000.0001)                 3.500000000000000E+02,      /* I = 88 */
(PID.TID 0000.0001)                 3.540000000000000E+02,      /* I = 89 */
(PID.TID 0000.0001)                 3.580000000000000E+02       /* I = 90 */
(PID.TID 0000.0001)     ;
(PID.TID 0000.0001) yC =  /* yC(1,:,1,:) : P-point Y coord ( deg. or m if cartesian) */
(PID.TID 0000.0001)                -7.800000000000000E+01,      /* J =  1 */
(PID.TID 0000.0001)                -7.400000000000000E+01,      /* J =  2 */
(PID.TID 0000.0001)                -7.000000000000000E+01,      /* J =  3 */
(PID.TID 0000.0001)                -6.600000000000000E+01,      /* J =  4 */
(PID.TID 0000.0001)                -6.200000000000000E+01,      /* J =  5 */
(PID.TID 0000.0001)                -5.800000000000000E+01,      /* J =  6 */
(PID.TID 0000.0001)                -5.400000000000000E+01,      /* J =  7 */
(PID.TID 0000.0001)                -5.000000000000000E+01,      /* J =  8 */
(PID.TID 0000.0001)                -4.600000000000000E+01,      /* J =  9 */
(PID.TID 0000.0001)                -4.200000000000000E+01,      /* J = 10 */
(PID.TID 0000.0001)                -3.800000000000000E+01,      /* J = 11 */
(PID.TID 0000.0001)                -3.400000000000000E+01,      /* J = 12 */
(PID.TID 0000.0001)                -3.000000000000000E+01,      /* J = 13 */
(PID.TID 0000.0001)                -2.600000000000000E+01,      /* J = 14 */
(PID.TID 0000.0001)                -2.200000000000000E+01,      /* J = 15 */
(PID.TID 0000.0001)                -1.800000000000000E+01,      /* J = 16 */
(PID.TID 0000.0001)                -1.400000000000000E+01,      /* J = 17 */
(PID.TID 0000.0001)                -1.000000000000000E+01,      /* J = 18 */
(PID.TID 0000.0001)                -6.000000000000000E+00,      /* J = 19 */
(PID.TID 0000.0001)                -2.000000000000000E+00,      /* J = 20 */
(PID.TID 0000.0001)                 2.000000000000000E+00,      /* J = 21 */
(PID.TID 0000.0001)                 6.000000000000000E+00,      /* J = 22 */
(PID.TID 0000.0001)                 1.000000000000000E+01,      /* J = 23 */
(PID.TID 0000.0001)                 1.400000000000000E+01,      /* J = 24 */
(PID.TID 0000.0001)                 1.800000000000000E+01,      /* J = 25 */
(PID.TID 0000.0001)                 2.200000000000000E+01,      /* J = 26 */
(PID.TID 0000.0001)                 2.600000000000000E+01,      /* J = 27 */
(PID.TID 0000.0001)                 3.000000000000000E+01,      /* J = 28 */
(PID.TID 0000.0001)                 3.400000000000000E+01,      /* J = 29 */
(PID.TID 0000.0001)                 3.800000000000000E+01,      /* J = 30 */
(PID.TID 0000.0001)                 4.200000000000000E+01,      /* J = 31 */
(PID.TID 0000.0001)                 4.600000000000000E+01,      /* J = 32 */
(PID.TID 0000.0001)                 5.000000000000000E+01,      /* J = 33 */
(PID.TID 0000.0001)                 5.400000000000000E+01,      /* J = 34 */
(PID.TID 0000.0001)                 5.800000000000000E+01,      /* J = 35 */
(PID.TID 0000.0001)                 6.200000000000000E+01,      /* J = 36 */
(PID.TID 0000.0001)                 6.600000000000000E+01,      /* J = 37 */
(PID.TID 0000.0001)                 7.000000000000000E+01,      /* J = 38 */
(PID.TID 0000.0001)                 7.400000000000000E+01,      /* J = 39 */
(PID.TID 0000.0001)                 7.800000000000000E+01       /* J = 40 */
(PID.TID 0000.0001)     ;
(PID.TID 0000.0001) rcoord = /* P-point R coordinate (  units of r ) */
(PID.TID 0000.0001)                -2.500000000000000E+01,      /* K =  1 */
(PID.TID 0000.0001)                -8.500000000000000E+01,      /* K =  2 */
(PID.TID 0000.0001)                -1.700000000000000E+02,      /* K =  3 */
(PID.TID 0000.0001)                -2.900000000000000E+02,      /* K =  4 */
(PID.TID 0000.0001)                -4.550000000000000E+02,      /* K =  5 */
(PID.TID 0000.0001)                -6.700000000000000E+02,      /* K =  6 */
(PID.TID 0000.0001)                -9.350000000000000E+02,      /* K =  7 */
(PID.TID 0000.0001)                -1.250000000000000E+03,      /* K =  8 */
(PID.TID 0000.0001)                -1.615000000000000E+03,      /* K =  9 */
(PID.TID 0000.0001)                -2.030000000000000E+03,      /* K = 10 */
(PID.TID 0000.0001)                -2.495000000000000E+03,      /* K = 11 */
(PID.TID 0000.0001)                -3.010000000000000E+03,      /* K = 12 */
(PID.TID 0000.0001)                -3.575000000000000E+03,      /* K = 13 */
(PID.TID 0000.0001)                -4.190000000000000E+03,      /* K = 14 */
(PID.TID 0000.0001)                -4.855000000000000E+03       /* K = 15 */
(PID.TID 0000.0001)     ;
(PID.TID 0000.0001) rF =   /* W-Interf. R coordinate (  units of r ) */
(PID.TID 0000.0001)                 0.000000000000000E+00,      /* K =  1 */
(PID.TID 0000.0001)                -5.000000000000000E+01,      /* K =  2 */
(PID.TID 0000.0001)                -1.200000000000000E+02,      /* K =  3 */
(PID.TID 0000.0001)                -2.200000000000000E+02,      /* K =  4 */
(PID.TID 0000.0001)                -3.600000000000000E+02,      /* K =  5 */
(PID.TID 0000.0001)                -5.500000000000000E+02,      /* K =  6 */
(PID.TID 0000.0001)                -7.900000000000000E+02,      /* K =  7 */
(PID.TID 0000.0001)                -1.080000000000000E+03,      /* K =  8 */
(PID.TID 0000.0001)                -1.420000000000000E+03,      /* K =  9 */
(PID.TID 0000.0001)                -1.810000000000000E+03,      /* K = 10 */
(PID.TID 0000.0001)                -2.250000000000000E+03,      /* K = 11 */
(PID.TID 0000.0001)                -2.740000000000000E+03,      /* K = 12 */
(PID.TID 0000.0001)                -3.280000000000000E+03,      /* K = 13 */
(PID.TID 0000.0001)                -3.870000000000000E+03,      /* K = 14 */
(PID.TID 0000.0001)                -4.510000000000000E+03,      /* K = 15 */
(PID.TID 0000.0001)                -5.200000000000000E+03       /* K = 16 */
(PID.TID 0000.0001)     ;
(PID.TID 0000.0001) deepFacC = /* deep-model grid factor @ cell-Center (-) */
(PID.TID 0000.0001)    15 @  1.000000000000000E+00              /* K =  1: 15 */
(PID.TID 0000.0001)     ;
(PID.TID 0000.0001) deepFacF = /* deep-model grid factor @ W-Interface (-) */
(PID.TID 0000.0001)    16 @  1.000000000000000E+00              /* K =  1: 16 */
(PID.TID 0000.0001)     ;
(PID.TID 0000.0001) rVel2wUnit = /* convert units: rVel -> wSpeed (=1 if z-coord)*/
(PID.TID 0000.0001)    16 @  1.000000000000000E+00              /* K =  1: 16 */
(PID.TID 0000.0001)     ;
(PID.TID 0000.0001) wUnit2rVel = /* convert units: wSpeed -> rVel (=1 if z-coord)*/
(PID.TID 0000.0001)    16 @  1.000000000000000E+00              /* K =  1: 16 */
(PID.TID 0000.0001)     ;
(PID.TID 0000.0001) dBdrRef = /* Vertical grad. of reference buoyancy [(m/s/r)^2] */
(PID.TID 0000.0001)    15 @  0.000000000000000E+00              /* K =  1: 15 */
(PID.TID 0000.0001)     ;
(PID.TID 0000.0001) rotateGrid = /* use rotated grid ( True/False ) */
(PID.TID 0000.0001)                   F
(PID.TID 0000.0001)     ;
(PID.TID 0000.0001) phiEuler = /* Euler angle, rotation about original z-coordinate [rad] */
(PID.TID 0000.0001)                 0.000000000000000E+00
(PID.TID 0000.0001)     ;
(PID.TID 0000.0001) thetaEuler = /* Euler angle, rotation about new x-coordinate [rad] */
(PID.TID 0000.0001)                 0.000000000000000E+00
(PID.TID 0000.0001)     ;
(PID.TID 0000.0001) psiEuler = /* Euler angle, rotation about new z-coordinate [rad] */
(PID.TID 0000.0001)                 0.000000000000000E+00
(PID.TID 0000.0001)     ;
(PID.TID 0000.0001) dxF =  /* dxF(:,1,:,1) ( units: m ) */
(PID.TID 0000.0001)    90 @  9.246038586187513E+04              /* I =  1: 90 */
(PID.TID 0000.0001)     ;
(PID.TID 0000.0001) dxF =  /* dxF(1,:,1,:) ( units: m ) */
(PID.TID 0000.0001)                 9.246038586187513E+04,      /* J =  1 */
(PID.TID 0000.0001)                 1.225786591246834E+05,      /* J =  2 */
(PID.TID 0000.0001)                 1.520997414818001E+05,      /* J =  3 */
(PID.TID 0000.0001)                 1.808798091874300E+05,      /* J =  4 */
(PID.TID 0000.0001)                 2.087786486446736E+05,      /* J =  5 */
(PID.TID 0000.0001)                 2.356603395120765E+05,      /* J =  6 */
(PID.TID 0000.0001)                 2.613939168938713E+05,      /* J =  7 */
(PID.TID 0000.0001)                 2.858540093877838E+05,      /* J =  8 */
(PID.TID 0000.0001)                 3.089214498819034E+05,      /* J =  9 */
(PID.TID 0000.0001)                 3.304838561248741E+05,      /* J = 10 */
(PID.TID 0000.0001)                 3.504361782409254E+05,      /* J = 11 */
(PID.TID 0000.0001)                 3.686812105223082E+05,      /* J = 12 */
(PID.TID 0000.0001)                 3.851300650057323E+05,      /* J = 13 */
(PID.TID 0000.0001)                 3.997026045255871E+05,      /* J = 14 */
(PID.TID 0000.0001)                 4.123278331341585E+05,      /* J = 15 */
(PID.TID 0000.0001)                 4.229442419867491E+05,      /* J = 16 */
(PID.TID 0000.0001)                 4.315001090065870E+05,      /* J = 17 */
(PID.TID 0000.0001)                 4.379537508695838E+05,      /* J = 18 */
(PID.TID 0000.0001)                 4.422737260813012E+05,      /* J = 19 */
(PID.TID 0000.0001)     2 @  4.444389881567502E+05,             /* J = 20: 21 */
(PID.TID 0000.0001)                 4.422737260813012E+05,      /* J = 22 */
(PID.TID 0000.0001)                 4.379537508695838E+05,      /* J = 23 */
(PID.TID 0000.0001)                 4.315001090065870E+05,      /* J = 24 */
(PID.TID 0000.0001)                 4.229442419867491E+05,      /* J = 25 */
(PID.TID 0000.0001)                 4.123278331341585E+05,      /* J = 26 */
(PID.TID 0000.0001)                 3.997026045255871E+05,      /* J = 27 */
(PID.TID 0000.0001)                 3.851300650057323E+05,      /* J = 28 */
(PID.TID 0000.0001)                 3.686812105223082E+05,      /* J = 29 */
(PID.TID 0000.0001)                 3.504361782409254E+05,      /* J = 30 */
(PID.TID 0000.0001)                 3.304838561248741E+05,      /* J = 31 */
(PID.TID 0000.0001)                 3.089214498819034E+05,      /* J = 32 */
(PID.TID 0000.0001)                 2.858540093877838E+05,      /* J = 33 */
(PID.TID 0000.0001)                 2.613939168938713E+05,      /* J = 34 */
(PID.TID 0000.0001)                 2.356603395120765E+05,      /* J = 35 */
(PID.TID 0000.0001)                 2.087786486446736E+05,      /* J = 36 */
(PID.TID 0000.0001)                 1.808798091874300E+05,      /* J = 37 */
(PID.TID 0000.0001)                 1.520997414818001E+05,      /* J = 38 */
(PID.TID 0000.0001)                 1.225786591246834E+05,      /* J = 39 */
(PID.TID 0000.0001)                 9.246038586187513E+04       /* J = 40 */
(PID.TID 0000.0001)     ;
(PID.TID 0000.0001) dyF =  /* dyF(:,1,:,1) ( units: m ) */
(PID.TID 0000.0001)    90 @  4.447098934081552E+05              /* I =  1: 90 */
(PID.TID 0000.0001)     ;
(PID.TID 0000.0001) dyF =  /* dyF(1,:,1,:) ( units: m ) */
(PID.TID 0000.0001)    40 @  4.447098934081552E+05              /* J =  1: 40 */
(PID.TID 0000.0001)     ;
(PID.TID 0000.0001) dxG =  /* dxG(:,1,:,1) ( units: m ) */
(PID.TID 0000.0001)    90 @  7.722306258078101E+04              /* I =  1: 90 */
(PID.TID 0000.0001)     ;
(PID.TID 0000.0001) dxG =  /* dxG(1,:,1,:) ( units: m ) */
(PID.TID 0000.0001)                 7.722306258078101E+04,      /* J =  1 */
(PID.TID 0000.0001)                 1.075850604052271E+05,      /* J =  2 */
(PID.TID 0000.0001)                 1.374229146297914E+05,      /* J =  3 */
(PID.TID 0000.0001)                 1.665912582279823E+05,      /* J =  4 */
(PID.TID 0000.0001)                 1.949479859617814E+05,      /* J =  5 */
(PID.TID 0000.0001)                 2.223549467040777E+05,      /* J =  6 */
(PID.TID 0000.0001)                 2.486786164970726E+05,      /* J =  7 */
(PID.TID 0000.0001)                 2.737907490675810E+05,      /* J =  8 */
(PID.TID 0000.0001)                 2.975690006299821E+05,      /* J =  9 */
(PID.TID 0000.0001)                 3.198975259328452E+05,      /* J = 10 */
(PID.TID 0000.0001)                 3.406675426453503E+05,      /* J = 11 */
(PID.TID 0000.0001)                 3.597778613338690E+05,      /* J = 12 */
(PID.TID 0000.0001)                 3.771353784467131E+05,      /* J = 13 */
(PID.TID 0000.0001)                 3.926555299052806E+05,      /* J = 14 */
(PID.TID 0000.0001)                 4.062627030917454E+05,      /* J = 15 */
(PID.TID 0000.0001)                 4.178906052261313E+05,      /* J = 16 */
(PID.TID 0000.0001)                 4.274825863380723E+05,      /* J = 17 */
(PID.TID 0000.0001)                 4.349919152597734E+05,      /* J = 18 */
(PID.TID 0000.0001)                 4.403820072955634E+05,      /* J = 19 */
(PID.TID 0000.0001)                 4.436266024588540E+05,      /* J = 20 */
(PID.TID 0000.0001)                 4.447098934081552E+05,      /* J = 21 */
(PID.TID 0000.0001)                 4.436266024588540E+05,      /* J = 22 */
(PID.TID 0000.0001)                 4.403820072955634E+05,      /* J = 23 */
(PID.TID 0000.0001)                 4.349919152597734E+05,      /* J = 24 */
(PID.TID 0000.0001)                 4.274825863380723E+05,      /* J = 25 */
(PID.TID 0000.0001)                 4.178906052261313E+05,      /* J = 26 */
(PID.TID 0000.0001)                 4.062627030917454E+05,      /* J = 27 */
(PID.TID 0000.0001)                 3.926555299052806E+05,      /* J = 28 */
(PID.TID 0000.0001)                 3.771353784467131E+05,      /* J = 29 */
(PID.TID 0000.0001)                 3.597778613338690E+05,      /* J = 30 */
(PID.TID 0000.0001)                 3.406675426453503E+05,      /* J = 31 */
(PID.TID 0000.0001)                 3.198975259328452E+05,      /* J = 32 */
(PID.TID 0000.0001)                 2.975690006299821E+05,      /* J = 33 */
(PID.TID 0000.0001)                 2.737907490675810E+05,      /* J = 34 */
(PID.TID 0000.0001)                 2.486786164970726E+05,      /* J = 35 */
(PID.TID 0000.0001)                 2.223549467040777E+05,      /* J = 36 */
(PID.TID 0000.0001)                 1.949479859617814E+05,      /* J = 37 */
(PID.TID 0000.0001)                 1.665912582279823E+05,      /* J = 38 */
(PID.TID 0000.0001)                 1.374229146297914E+05,      /* J = 39 */
(PID.TID 0000.0001)                 1.075850604052271E+05       /* J = 40 */
(PID.TID 0000.0001)     ;
(PID.TID 0000.0001) dyG =  /* dyG(:,1,:,1) ( units: m ) */
(PID.TID 0000.0001)    90 @  4.447098934081552E+05              /* I =  1: 90 */
(PID.TID 0000.0001)     ;
(PID.TID 0000.0001) dyG =  /* dyG(1,:,1,:) ( units: m ) */
(PID.TID 0000.0001)    40 @  4.447098934081552E+05              /* J =  1: 40 */
(PID.TID 0000.0001)     ;
(PID.TID 0000.0001) dxC =  /* dxC(:,1,:,1) ( units: m ) */
(PID.TID 0000.0001)    90 @  9.246038586187513E+04              /* I =  1: 90 */
(PID.TID 0000.0001)     ;
(PID.TID 0000.0001) dxC =  /* dxC(1,:,1,:) ( units: m ) */
(PID.TID 0000.0001)                 9.246038586187513E+04,      /* J =  1 */
(PID.TID 0000.0001)                 1.225786591246834E+05,      /* J =  2 */
(PID.TID 0000.0001)                 1.520997414818001E+05,      /* J =  3 */
(PID.TID 0000.0001)                 1.808798091874300E+05,      /* J =  4 */
(PID.TID 0000.0001)                 2.087786486446736E+05,      /* J =  5 */
(PID.TID 0000.0001)                 2.356603395120765E+05,      /* J =  6 */
(PID.TID 0000.0001)                 2.613939168938713E+05,      /* J =  7 */
(PID.TID 0000.0001)                 2.858540093877838E+05,      /* J =  8 */
(PID.TID 0000.0001)                 3.089214498819034E+05,      /* J =  9 */
(PID.TID 0000.0001)                 3.304838561248741E+05,      /* J = 10 */
(PID.TID 0000.0001)                 3.504361782409254E+05,      /* J = 11 */
(PID.TID 0000.0001)                 3.686812105223082E+05,      /* J = 12 */
(PID.TID 0000.0001)                 3.851300650057323E+05,      /* J = 13 */
(PID.TID 0000.0001)                 3.997026045255871E+05,      /* J = 14 */
(PID.TID 0000.0001)                 4.123278331341585E+05,      /* J = 15 */
(PID.TID 0000.0001)                 4.229442419867491E+05,      /* J = 16 */
(PID.TID 0000.0001)                 4.315001090065870E+05,      /* J = 17 */
(PID.TID 0000.0001)                 4.379537508695838E+05,      /* J = 18 */
(PID.TID 0000.0001)                 4.422737260813012E+05,      /* J = 19 */
(PID.TID 0000.0001)     2 @  4.444389881567502E+05,             /* J = 20: 21 */
(PID.TID 0000.0001)                 4.422737260813012E+05,      /* J = 22 */
(PID.TID 0000.0001)                 4.379537508695838E+05,      /* J = 23 */
(PID.TID 0000.0001)                 4.315001090065870E+05,      /* J = 24 */
(PID.TID 0000.0001)                 4.229442419867491E+05,      /* J = 25 */
(PID.TID 0000.0001)                 4.123278331341585E+05,      /* J = 26 */
(PID.TID 0000.0001)                 3.997026045255871E+05,      /* J = 27 */
(PID.TID 0000.0001)                 3.851300650057323E+05,      /* J = 28 */
(PID.TID 0000.0001)                 3.686812105223082E+05,      /* J = 29 */
(PID.TID 0000.0001)                 3.504361782409254E+05,      /* J = 30 */
(PID.TID 0000.0001)                 3.304838561248741E+05,      /* J = 31 */
(PID.TID 0000.0001)                 3.089214498819034E+05,      /* J = 32 */
(PID.TID 0000.0001)                 2.858540093877838E+05,      /* J = 33 */
(PID.TID 0000.0001)                 2.613939168938713E+05,      /* J = 34 */
(PID.TID 0000.0001)                 2.356603395120765E+05,      /* J = 35 */
(PID.TID 0000.0001)                 2.087786486446736E+05,      /* J = 36 */
(PID.TID 0000.0001)                 1.808798091874300E+05,      /* J = 37 */
(PID.TID 0000.0001)                 1.520997414818001E+05,      /* J = 38 */
(PID.TID 0000.0001)                 1.225786591246834E+05,      /* J = 39 */
(PID.TID 0000.0001)                 9.246038586187513E+04       /* J = 40 */
(PID.TID 0000.0001)     ;
(PID.TID 0000.0001) dyC =  /* dyC(:,1,:,1) ( units: m ) */
(PID.TID 0000.0001)    90 @  4.447098934081552E+05              /* I =  1: 90 */
(PID.TID 0000.0001)     ;
(PID.TID 0000.0001) dyC =  /* dyC(1,:,1,:) ( units: m ) */
(PID.TID 0000.0001)    40 @  4.447098934081552E+05              /* J =  1: 40 */
(PID.TID 0000.0001)     ;
(PID.TID 0000.0001) dxV =  /* dxV(:,1,:,1) ( units: m ) */
(PID.TID 0000.0001)    90 @  7.722306258078101E+04              /* I =  1: 90 */
(PID.TID 0000.0001)     ;
(PID.TID 0000.0001) dxV =  /* dxV(1,:,1,:) ( units: m ) */
(PID.TID 0000.0001)                 7.722306258078101E+04,      /* J =  1 */
(PID.TID 0000.0001)                 1.075850604052271E+05,      /* J =  2 */
(PID.TID 0000.0001)                 1.374229146297914E+05,      /* J =  3 */
(PID.TID 0000.0001)                 1.665912582279823E+05,      /* J =  4 */
(PID.TID 0000.0001)                 1.949479859617814E+05,      /* J =  5 */
(PID.TID 0000.0001)                 2.223549467040777E+05,      /* J =  6 */
(PID.TID 0000.0001)                 2.486786164970726E+05,      /* J =  7 */
(PID.TID 0000.0001)                 2.737907490675810E+05,      /* J =  8 */
(PID.TID 0000.0001)                 2.975690006299821E+05,      /* J =  9 */
(PID.TID 0000.0001)                 3.198975259328452E+05,      /* J = 10 */
(PID.TID 0000.0001)                 3.406675426453503E+05,      /* J = 11 */
(PID.TID 0000.0001)                 3.597778613338690E+05,      /* J = 12 */
(PID.TID 0000.0001)                 3.771353784467131E+05,      /* J = 13 */
(PID.TID 0000.0001)                 3.926555299052806E+05,      /* J = 14 */
(PID.TID 0000.0001)                 4.062627030917454E+05,      /* J = 15 */
(PID.TID 0000.0001)                 4.178906052261313E+05,      /* J = 16 */
(PID.TID 0000.0001)                 4.274825863380723E+05,      /* J = 17 */
(PID.TID 0000.0001)                 4.349919152597734E+05,      /* J = 18 */
(PID.TID 0000.0001)                 4.403820072955634E+05,      /* J = 19 */
(PID.TID 0000.0001)                 4.436266024588540E+05,      /* J = 20 */
(PID.TID 0000.0001)                 4.447098934081552E+05,      /* J = 21 */
(PID.TID 0000.0001)                 4.436266024588540E+05,      /* J = 22 */
(PID.TID 0000.0001)                 4.403820072955634E+05,      /* J = 23 */
(PID.TID 0000.0001)                 4.349919152597734E+05,      /* J = 24 */
(PID.TID 0000.0001)                 4.274825863380723E+05,      /* J = 25 */
(PID.TID 0000.0001)                 4.178906052261313E+05,      /* J = 26 */
(PID.TID 0000.0001)                 4.062627030917454E+05,      /* J = 27 */
(PID.TID 0000.0001)                 3.926555299052806E+05,      /* J = 28 */
(PID.TID 0000.0001)                 3.771353784467131E+05,      /* J = 29 */
(PID.TID 0000.0001)                 3.597778613338690E+05,      /* J = 30 */
(PID.TID 0000.0001)                 3.406675426453503E+05,      /* J = 31 */
(PID.TID 0000.0001)                 3.198975259328452E+05,      /* J = 32 */
(PID.TID 0000.0001)                 2.975690006299821E+05,      /* J = 33 */
(PID.TID 0000.0001)                 2.737907490675810E+05,      /* J = 34 */
(PID.TID 0000.0001)                 2.486786164970726E+05,      /* J = 35 */
(PID.TID 0000.0001)                 2.223549467040777E+05,      /* J = 36 */
(PID.TID 0000.0001)                 1.949479859617814E+05,      /* J = 37 */
(PID.TID 0000.0001)                 1.665912582279823E+05,      /* J = 38 */
(PID.TID 0000.0001)                 1.374229146297914E+05,      /* J = 39 */
(PID.TID 0000.0001)                 1.075850604052271E+05       /* J = 40 */
(PID.TID 0000.0001)     ;
(PID.TID 0000.0001) dyU =  /* dyU(:,1,:,1) ( units: m ) */
(PID.TID 0000.0001)    90 @  4.447098934081552E+05              /* I =  1: 90 */
(PID.TID 0000.0001)     ;
(PID.TID 0000.0001) dyU =  /* dyU(1,:,1,:) ( units: m ) */
(PID.TID 0000.0001)    40 @  4.447098934081552E+05              /* J =  1: 40 */
(PID.TID 0000.0001)     ;
(PID.TID 0000.0001) rA  =  /* rA (:,1,:,1) ( units: m^2 ) */
(PID.TID 0000.0001)    90 @  4.110969866729047E+10              /* I =  1: 90 */
(PID.TID 0000.0001)     ;
(PID.TID 0000.0001) rA  =  /* rA (1,:,1,:) ( units: m^2 ) */
(PID.TID 0000.0001)                 4.110969866729047E+10,      /* J =  1 */
(PID.TID 0000.0001)                 5.450087291636665E+10,      /* J =  2 */
(PID.TID 0000.0001)                 6.762652439100235E+10,      /* J =  3 */
(PID.TID 0000.0001)                 8.042270623659998E+10,      /* J =  4 */
(PID.TID 0000.0001)                 9.282707674147523E+10,      /* J =  5 */
(PID.TID 0000.0001)                 1.047792030594103E+11,      /* J =  6 */
(PID.TID 0000.0001)                 1.162208556324093E+11,      /* J =  7 */
(PID.TID 0000.0001)                 1.270962918792468E+11,      /* J =  8 */
(PID.TID 0000.0001)                 1.373525277677229E+11,      /* J =  9 */
(PID.TID 0000.0001)                 1.469395959475426E+11,      /* J = 10 */
(PID.TID 0000.0001)                 1.558107891862220E+11,      /* J = 11 */
(PID.TID 0000.0001)                 1.639228879220326E+11,      /* J = 12 */
(PID.TID 0000.0001)                 1.712363708253573E+11,      /* J = 13 */
(PID.TID 0000.0001)                 1.777156073426415E+11,      /* J = 14 */
(PID.TID 0000.0001)                 1.833290312848623E+11,      /* J = 15 */
(PID.TID 0000.0001)                 1.880492946148330E+11,      /* J = 16 */
(PID.TID 0000.0001)                 1.918534006840893E+11,      /* J = 17 */
(PID.TID 0000.0001)                 1.947228162702492E+11,      /* J = 18 */
(PID.TID 0000.0001)                 1.966435618690094E+11,      /* J = 19 */
(PID.TID 0000.0001)     2 @  1.976062798008856E+11,             /* J = 20: 21 */
(PID.TID 0000.0001)                 1.966435618690094E+11,      /* J = 22 */
(PID.TID 0000.0001)                 1.947228162702492E+11,      /* J = 23 */
(PID.TID 0000.0001)                 1.918534006840893E+11,      /* J = 24 */
(PID.TID 0000.0001)                 1.880492946148330E+11,      /* J = 25 */
(PID.TID 0000.0001)                 1.833290312848623E+11,      /* J = 26 */
(PID.TID 0000.0001)                 1.777156073426415E+11,      /* J = 27 */
(PID.TID 0000.0001)                 1.712363708253573E+11,      /* J = 28 */
(PID.TID 0000.0001)                 1.639228879220326E+11,      /* J = 29 */
(PID.TID 0000.0001)                 1.558107891862220E+11,      /* J = 30 */
(PID.TID 0000.0001)                 1.469395959475426E+11,      /* J = 31 */
(PID.TID 0000.0001)                 1.373525277677229E+11,      /* J = 32 */
(PID.TID 0000.0001)                 1.270962918792468E+11,      /* J = 33 */
(PID.TID 0000.0001)                 1.162208556324093E+11,      /* J = 34 */
(PID.TID 0000.0001)                 1.047792030594103E+11,      /* J = 35 */
(PID.TID 0000.0001)                 9.282707674147523E+10,      /* J = 36 */
(PID.TID 0000.0001)                 8.042270623659998E+10,      /* J = 37 */
(PID.TID 0000.0001)                 6.762652439100235E+10,      /* J = 38 */
(PID.TID 0000.0001)                 5.450087291636665E+10,      /* J = 39 */
(PID.TID 0000.0001)                 4.110969866729047E+10       /* J = 40 */
(PID.TID 0000.0001)     ;
(PID.TID 0000.0001) rAw =  /* rAw(:,1,:,1) ( units: m^2 ) */
(PID.TID 0000.0001)    90 @  4.110969866729047E+10              /* I =  1: 90 */
(PID.TID 0000.0001)     ;
(PID.TID 0000.0001) rAw =  /* rAw(1,:,1,:) ( units: m^2 ) */
(PID.TID 0000.0001)                 4.110969866729047E+10,      /* J =  1 */
(PID.TID 0000.0001)                 5.450087291636665E+10,      /* J =  2 */
(PID.TID 0000.0001)                 6.762652439100235E+10,      /* J =  3 */
(PID.TID 0000.0001)                 8.042270623659998E+10,      /* J =  4 */
(PID.TID 0000.0001)                 9.282707674147523E+10,      /* J =  5 */
(PID.TID 0000.0001)                 1.047792030594103E+11,      /* J =  6 */
(PID.TID 0000.0001)                 1.162208556324093E+11,      /* J =  7 */
(PID.TID 0000.0001)                 1.270962918792468E+11,      /* J =  8 */
(PID.TID 0000.0001)                 1.373525277677229E+11,      /* J =  9 */
(PID.TID 0000.0001)                 1.469395959475426E+11,      /* J = 10 */
(PID.TID 0000.0001)                 1.558107891862220E+11,      /* J = 11 */
(PID.TID 0000.0001)                 1.639228879220326E+11,      /* J = 12 */
(PID.TID 0000.0001)                 1.712363708253573E+11,      /* J = 13 */
(PID.TID 0000.0001)                 1.777156073426415E+11,      /* J = 14 */
(PID.TID 0000.0001)                 1.833290312848623E+11,      /* J = 15 */
(PID.TID 0000.0001)                 1.880492946148330E+11,      /* J = 16 */
(PID.TID 0000.0001)                 1.918534006840893E+11,      /* J = 17 */
(PID.TID 0000.0001)                 1.947228162702492E+11,      /* J = 18 */
(PID.TID 0000.0001)                 1.966435618690094E+11,      /* J = 19 */
(PID.TID 0000.0001)     2 @  1.976062798008856E+11,             /* J = 20: 21 */
(PID.TID 0000.0001)                 1.966435618690094E+11,      /* J = 22 */
(PID.TID 0000.0001)                 1.947228162702492E+11,      /* J = 23 */
(PID.TID 0000.0001)                 1.918534006840893E+11,      /* J = 24 */
(PID.TID 0000.0001)                 1.880492946148330E+11,      /* J = 25 */
(PID.TID 0000.0001)                 1.833290312848623E+11,      /* J = 26 */
(PID.TID 0000.0001)                 1.777156073426415E+11,      /* J = 27 */
(PID.TID 0000.0001)                 1.712363708253573E+11,      /* J = 28 */
(PID.TID 0000.0001)                 1.639228879220326E+11,      /* J = 29 */
(PID.TID 0000.0001)                 1.558107891862220E+11,      /* J = 30 */
(PID.TID 0000.0001)                 1.469395959475426E+11,      /* J = 31 */
(PID.TID 0000.0001)                 1.373525277677229E+11,      /* J = 32 */
(PID.TID 0000.0001)                 1.270962918792468E+11,      /* J = 33 */
(PID.TID 0000.0001)                 1.162208556324093E+11,      /* J = 34 */
(PID.TID 0000.0001)                 1.047792030594103E+11,      /* J = 35 */
(PID.TID 0000.0001)                 9.282707674147523E+10,      /* J = 36 */
(PID.TID 0000.0001)                 8.042270623659998E+10,      /* J = 37 */
(PID.TID 0000.0001)                 6.762652439100235E+10,      /* J = 38 */
(PID.TID 0000.0001)                 5.450087291636665E+10,      /* J = 39 */
(PID.TID 0000.0001)                 4.110969866729047E+10       /* J = 40 */
(PID.TID 0000.0001)     ;
(PID.TID 0000.0001) rAs =  /* rAs(:,1,:,1) ( units: m^2 ) */
(PID.TID 0000.0001)    90 @  3.433488626798250E+10              /* I =  1: 90 */
(PID.TID 0000.0001)     ;
(PID.TID 0000.0001) rAs =  /* rAs(1,:,1,:) ( units: m^2 ) */
(PID.TID 0000.0001)                 3.433488626798250E+10,      /* J =  1 */
(PID.TID 0000.0001)                 4.783442523123625E+10,      /* J =  2 */
(PID.TID 0000.0001)                 6.110091968306414E+10,      /* J =  3 */
(PID.TID 0000.0001)                 7.406973659603818E+10,      /* J =  4 */
(PID.TID 0000.0001)                 8.667769319778079E+10,      /* J =  5 */
(PID.TID 0000.0001)                 9.886336479107463E+10,      /* J =  6 */
(PID.TID 0000.0001)                 1.105673840088173E+11,      /* J =  7 */
(PID.TID 0000.0001)                 1.217327300458638E+11,      /* J =  8 */
(PID.TID 0000.0001)                 1.323050064586578E+11,      /* J =  9 */
(PID.TID 0000.0001)                 1.422327061792377E+11,      /* J = 10 */
(PID.TID 0000.0001)                 1.514674624524945E+11,      /* J = 11 */
(PID.TID 0000.0001)                 1.599642844741385E+11,      /* J = 12 */
(PID.TID 0000.0001)                 1.676817765813788E+11,      /* J = 13 */
(PID.TID 0000.0001)                 1.745823399284268E+11,      /* J = 14 */
(PID.TID 0000.0001)                 1.806323556642996E+11,      /* J = 15 */
(PID.TID 0000.0001)                 1.858023487204767E+11,      /* J = 16 */
(PID.TID 0000.0001)                 1.900671314104743E+11,      /* J = 17 */
(PID.TID 0000.0001)                 1.934059261417216E+11,      /* J = 18 */
(PID.TID 0000.0001)                 1.958024666419019E+11,      /* J = 19 */
(PID.TID 0000.0001)                 1.972450772065981E+11,      /* J = 20 */
(PID.TID 0000.0001)                 1.977267295821495E+11,      /* J = 21 */
(PID.TID 0000.0001)                 1.972450772065981E+11,      /* J = 22 */
(PID.TID 0000.0001)                 1.958024666419019E+11,      /* J = 23 */
(PID.TID 0000.0001)                 1.934059261417216E+11,      /* J = 24 */
(PID.TID 0000.0001)                 1.900671314104743E+11,      /* J = 25 */
(PID.TID 0000.0001)                 1.858023487204767E+11,      /* J = 26 */
(PID.TID 0000.0001)                 1.806323556642996E+11,      /* J = 27 */
(PID.TID 0000.0001)                 1.745823399284268E+11,      /* J = 28 */
(PID.TID 0000.0001)                 1.676817765813788E+11,      /* J = 29 */
(PID.TID 0000.0001)                 1.599642844741385E+11,      /* J = 30 */
(PID.TID 0000.0001)                 1.514674624524945E+11,      /* J = 31 */
(PID.TID 0000.0001)                 1.422327061792377E+11,      /* J = 32 */
(PID.TID 0000.0001)                 1.323050064586578E+11,      /* J = 33 */
(PID.TID 0000.0001)                 1.217327300458638E+11,      /* J = 34 */
(PID.TID 0000.0001)                 1.105673840088173E+11,      /* J = 35 */
(PID.TID 0000.0001)                 9.886336479107463E+10,      /* J = 36 */
(PID.TID 0000.0001)                 8.667769319778079E+10,      /* J = 37 */
(PID.TID 0000.0001)                 7.406973659603818E+10,      /* J = 38 */
(PID.TID 0000.0001)                 6.110091968306414E+10,      /* J = 39 */
(PID.TID 0000.0001)                 4.783442523123625E+10       /* J = 40 */
(PID.TID 0000.0001)     ;
(PID.TID 0000.0001) globalArea = /* Integrated horizontal Area (m^2) */
(PID.TID 0000.0001)                 3.450614146649838E+14
(PID.TID 0000.0001)     ;
(PID.TID 0000.0001) the_run_name = /* Name of this simulation */
(PID.TID 0000.0001)               'global_oce_latlon'
(PID.TID 0000.0001)     ;
(PID.TID 0000.0001) // =======================================================
(PID.TID 0000.0001) // End of Model config. summary
(PID.TID 0000.0001) // =======================================================
(PID.TID 0000.0001) 
(PID.TID 0000.0001) == Packages configuration : Check & print summary ==
(PID.TID 0000.0001) 
(PID.TID 0000.0001) GMREDI_CHECK: #define GMREDI
(PID.TID 0000.0001) GM_AdvForm =     /* if FALSE => use SkewFlux Form */
(PID.TID 0000.0001)                   F
(PID.TID 0000.0001)     ;
(PID.TID 0000.0001) GM_InMomAsStress = /* if TRUE => apply as Eddy Stress */
(PID.TID 0000.0001)                   F
(PID.TID 0000.0001)     ;
(PID.TID 0000.0001) GM_AdvSeparate = /* Calc Bolus & Euler Adv. separately */
(PID.TID 0000.0001)                   F
(PID.TID 0000.0001)     ;
(PID.TID 0000.0001) GM_ExtraDiag =   /* Tensor Extra Diag (line 1&2) non 0 */
(PID.TID 0000.0001)                   F
(PID.TID 0000.0001)     ;
(PID.TID 0000.0001) GM_isopycK =    /* Background Isopyc. Diffusivity [m^2/s] */
(PID.TID 0000.0001)                 1.000000000000000E+03
(PID.TID 0000.0001)     ;
(PID.TID 0000.0001) GM_skewflx*K =  /* Background GM_SkewFlx Diffusivity [m^2/s] */
(PID.TID 0000.0001)                 1.000000000000000E+03
(PID.TID 0000.0001)     ;
(PID.TID 0000.0001) GM_advec*K =    /* Backg. GM-Advec(=Bolus) Diffusivity [m^2/s]*/
(PID.TID 0000.0001)                 0.000000000000000E+00
(PID.TID 0000.0001)     ;
(PID.TID 0000.0001) GM_Kmin_horiz = /* Minimum Horizontal Diffusivity [m^2/s] */
(PID.TID 0000.0001)                 5.000000000000000E+01
(PID.TID 0000.0001)     ;
(PID.TID 0000.0001) GM_Visbeck_alpha = /* Visbeck alpha coeff. [-] */
(PID.TID 0000.0001)                 0.000000000000000E+00
(PID.TID 0000.0001)     ;
(PID.TID 0000.0001) GM_Small_Number =  /* epsilon used in slope calc */
(PID.TID 0000.0001)                 9.999999999999999E-21
(PID.TID 0000.0001)     ;
(PID.TID 0000.0001) GM_slopeSqCutoff = /* Slope^2 cut-off value */
(PID.TID 0000.0001)                 1.000000000000000E+48
(PID.TID 0000.0001)     ;
(PID.TID 0000.0001) GM_taper_scheme =  /* Type of Tapering/Clipping scheme */
(PID.TID 0000.0001)               'gkw91                                   '
(PID.TID 0000.0001)     ;
(PID.TID 0000.0001) GM_maxSlope =  /* Maximum Slope (Tapering/Clipping) */
(PID.TID 0000.0001)                 1.000000000000000E-02
(PID.TID 0000.0001)     ;
(PID.TID 0000.0001) GM_facTrL2dz = /* Minimum Trans.Layer Thick. (factor of dz) */
(PID.TID 0000.0001)                 1.000000000000000E+00
(PID.TID 0000.0001)     ;
(PID.TID 0000.0001) GM_facTrL2ML = /* Max.Trans.Layer Thick. (factor of MxL Depth)*/
(PID.TID 0000.0001)                 5.000000000000000E+00
(PID.TID 0000.0001)     ;
(PID.TID 0000.0001) GM_maxTransLay = /* Maximum Transition Layer Thickness [m] */
(PID.TID 0000.0001)                 5.000000000000000E+02
(PID.TID 0000.0001)     ;
(PID.TID 0000.0001) GM_UseBVP = /* if TRUE => use bvp a la Ferrari et al. (2010) */
(PID.TID 0000.0001)                   F
(PID.TID 0000.0001)     ;
(PID.TID 0000.0001) GM_BVP_ModeNumber = /* Vertical mode number for BVP wave speed */
(PID.TID 0000.0001)                       1
(PID.TID 0000.0001)     ;
(PID.TID 0000.0001) GM_BVP_cMin = /* Minimum wave speed for BVP [m/s] */
(PID.TID 0000.0001)                 1.000000000000000E-01
(PID.TID 0000.0001)     ;
(PID.TID 0000.0001) GM_useSubMeso = /* if TRUE => use Sub-Meso param. (B.Fox-Kemper) */
(PID.TID 0000.0001)                   F
(PID.TID 0000.0001)     ;
(PID.TID 0000.0001) subMeso_Ceff = /* efficiency coeff. of Mixed-Layer Eddies [-] */
(PID.TID 0000.0001)                 7.000000000000001E-02
(PID.TID 0000.0001)     ;
(PID.TID 0000.0001) subMeso_invTau = /* inverse of Sub-Meso mixing time-scale [/s] */
(PID.TID 0000.0001)                 2.000000000000000E-06
(PID.TID 0000.0001)     ;
(PID.TID 0000.0001) subMeso_LfMin = /* minimum length-scale "Lf" [m] */
(PID.TID 0000.0001)                 1.000000000000000E+03
(PID.TID 0000.0001)     ;
(PID.TID 0000.0001) subMeso_Lmax = /* maximum grid-scale length [m] */
(PID.TID 0000.0001)                 1.100000000000000E+05
(PID.TID 0000.0001)     ;
(PID.TID 0000.0001) GM_useLeithQG = /* if TRUE => add QG Leith viscosity to GMRedi tensor */
(PID.TID 0000.0001)                   F
(PID.TID 0000.0001)     ;
(PID.TID 0000.0001) GAD_CHECK: #define ALLOW_GENERIC_ADVDIFF
(PID.TID 0000.0001) // =======================================================
(PID.TID 0000.0001) // Check Model config. (CONFIG_CHECK):
(PID.TID 0000.0001) // CONFIG_CHECK : Normal End
(PID.TID 0000.0001) // =======================================================
(PID.TID 0000.0001) 
(PID.TID 0000.0001)  MDS_WRITE_FIELD: it,rec,kS,kL,kH=      -1     1   1   1   1 file=XC
(PID.TID 0000.0001)  MDS_WRITE_FIELD: it,rec,kS,kL,kH=      -1     1   1   1   1 file=YC
(PID.TID 0000.0001)  MDS_WRITE_FIELD: it,rec,kS,kL,kH=      -1     1   1   1   1 file=XG
(PID.TID 0000.0001)  MDS_WRITE_FIELD: it,rec,kS,kL,kH=      -1     1   1   1   1 file=YG
(PID.TID 0000.0001)  MDS_WRITE_FIELD: it,rec,kS,kL,kH=      -1     1   1   1   1 file=RAC
(PID.TID 0000.0001)  MDS_WRITE_FIELD: it,rec,kS,kL,kH=      -1     1   1   1   1 file=RAW
(PID.TID 0000.0001)  MDS_WRITE_FIELD: it,rec,kS,kL,kH=      -1     1   1   1   1 file=RAS
(PID.TID 0000.0001)  MDS_WRITE_FIELD: it,rec,kS,kL,kH=      -1     1   1   1   1 file=RAZ
(PID.TID 0000.0001)  MDS_WRITE_FIELD: it,rec,kS,kL,kH=      -1     1   1   1   1 file=DXG
(PID.TID 0000.0001)  MDS_WRITE_FIELD: it,rec,kS,kL,kH=      -1     1   1   1   1 file=DYG
(PID.TID 0000.0001)  MDS_WRITE_FIELD: it,rec,kS,kL,kH=      -1     1   1   1   1 file=DXC
(PID.TID 0000.0001)  MDS_WRITE_FIELD: it,rec,kS,kL,kH=      -1     1   1   1   1 file=DYC
(PID.TID 0000.0001)  MDS_WRITE_FIELD: it,rec,kS,kL,kH=      -1     1   1   1   1 file=DXF
(PID.TID 0000.0001)  MDS_WRITE_FIELD: it,rec,kS,kL,kH=      -1     1   1   1   1 file=DYF
(PID.TID 0000.0001)  MDS_WRITE_FIELD: it,rec,kS,kL,kH=      -1     1   1   1   1 file=DXV
(PID.TID 0000.0001)  MDS_WRITE_FIELD: it,rec,kS,kL,kH=      -1     1   1   1   1 file=DYU
(PID.TID 0000.0001)  MDS_WRITE_FIELD: it,rec,kS,kL,kH=      -1     1   1   1   1 file=Depth
(PID.TID 0000.0001)  MDS_WRITE_FIELD: it,rec,kS,kL,kH=      -1     1   1   1   1 file=rLowC
(PID.TID 0000.0001)  MDS_WRITE_FIELD: it,rec,kS,kL,kH=      -1     1   1   1   1 file=rLowW
(PID.TID 0000.0001)  MDS_WRITE_FIELD: it,rec,kS,kL,kH=      -1     1   1   1   1 file=rLowS
(PID.TID 0000.0001)  MDS_WRITE_FIELD: it,rec,kS,kL,kH=      -1     1   1   1   1 file=rSurfC
(PID.TID 0000.0001)  MDS_WRITE_FIELD: it,rec,kS,kL,kH=      -1     1   1   1   1 file=rSurfW
(PID.TID 0000.0001)  MDS_WRITE_FIELD: it,rec,kS,kL,kH=      -1     1   1   1   1 file=rSurfS
(PID.TID 0000.0001)  MDS_WRITE_FIELD: it,rec,kS,kL,kH=       0     1  15   1  15 file=hFacC
(PID.TID 0000.0001)  MDS_WRITE_FIELD: it,rec,kS,kL,kH=       0     1  15   1  15 file=hFacW
(PID.TID 0000.0001)  MDS_WRITE_FIELD: it,rec,kS,kL,kH=       0     1  15   1  15 file=hFacS
(PID.TID 0000.0001)  MDS_WRITEVEC_LOC: open file: RC.data
(PID.TID 0000.0001)  MDS_WR_REC_RS: iRec,Dim =         1         15
(PID.TID 0000.0001)  MDS_WRITEVEC_LOC: open file: RF.data
(PID.TID 0000.0001)  MDS_WR_REC_RS: iRec,Dim =         1         16
(PID.TID 0000.0001)  MDS_WRITEVEC_LOC: open file: DRC.data
(PID.TID 0000.0001)  MDS_WR_REC_RS: iRec,Dim =         1         16
(PID.TID 0000.0001)  MDS_WRITEVEC_LOC: open file: DRF.data
(PID.TID 0000.0001)  MDS_WR_REC_RS: iRec,Dim =         1         15
(PID.TID 0000.0001)  MDS_WRITEVEC_LOC: open file: PHrefF.data
(PID.TID 0000.0001)  MDS_WR_REC_RS: iRec,Dim =         1         16
(PID.TID 0000.0001)  MDS_WRITEVEC_LOC: open file: PHrefC.data
(PID.TID 0000.0001)  MDS_WR_REC_RS: iRec,Dim =         1         15
(PID.TID 0000.0001)  MDS_READ_FIELD: opening global file: lev_t.bin
(PID.TID 0000.0001) // =======================================================
(PID.TID 0000.0001) // Field Initial Temperature at iteration          1
(PID.TID 0000.0001) // CMIN =         -1.900000000000000E+00
(PID.TID 0000.0001) // CMAX =          2.973338890075684E+01
(PID.TID 0000.0001) // CINT =          1.171606996324327E+00
(PID.TID 0000.0001) // SYMBOLS (CMIN->CMAX): -abcdefghijklmnopqrstuvwxyz+
(PID.TID 0000.0001) //                  0.0: .
(PID.TID 0000.0001) // RANGE I (Lo:Hi:Step):(     1:    90:     1)
(PID.TID 0000.0001) // RANGE J (Lo:Hi:Step):(    40:     1:    -1)
(PID.TID 0000.0001) // RANGE K (Lo:Hi:Step):(   1:   1:   1)
(PID.TID 0000.0001) // =======================================================
(PID.TID 0000.0001) K =   1
(PID.TID 0000.0001)                I=10      I=20      I=30      I=40      I=50      I=60      I=70      I=80      I=90
(PID.TID 0000.0001) |--J--|123456789|123456789|123456789|123456789|123456789|123456789|123456789|123456789|123456789|
(PID.TID 0000.0001)     40 bccdd.baa----abdedd..................................................................bbbbb
(PID.TID 0000.0001)     39 ccdddddccbbbaa...ed.....................................................----........bbbbbb
(PID.TID 0000.0001)     38 fffgfedeedddc...........................................................-----......cbbbcde
(PID.TID 0000.0001)     37 ghh..................................................................bc...bbc...edeed.defg
(PID.TID 0000.0001)     36 hh.........................................ddcb....................dcccbabccdd.eefghhihhih
(PID.TID 0000.0001)     35 hh.................................aaab..dddeddd...ffggg...........ccc....ddeeeffghijjjjih
(PID.TID 0000.0001)     34 ...................................babb.deeeeeee.ffffgghh..................ccdffghijkkkj..
(PID.TID 0000.0001)     33 ....................................accdddeeeeefffffgghhiii.................bcfijkkllllkk.
(PID.TID 0000.0001)     32 ....................................bdddeffgffgghhhhhiiijjj................dccglmnmmmmlll.
(PID.TID 0000.0001)     31 ....................................fghiiiijjjjjjkkkkklllkk..............ikkjjmooooonnmm..
(PID.TID 0000.0001)     30 ...................................mmmnmmmmmmmmmmmmmnnnnnmm............moqrrrqrqqqpppooo..
(PID.TID 0000.0001)     29 .................................pqqqqqpppppppppoppoppppponm...........ssssssrrrrrqqqqpp..
(PID.TID 0000.0001)     28 ...............................prssssrrrsssrrrrrrrrrrrrrqqpoo.........uttssstssrssrrrqqq..
(PID.TID 0000.0001)     27 ..............vv..............stuttuuuuutuuuuuuuuuuttttssrrqqq...stuu.vvvuuuuutttttsss....
(PID.TID 0000.0001)     26 ..............vvv...........uuvvvvvwwwwwwwwvvvvvvvvvuuutttsssttv.uuvxxwwwwwwvvvvuuttsr....
(PID.TID 0000.0001)     25 ..............wwwx...xxx...vvvxxxxxyyxxxxxxxxxwwwwwvvvvvuuuuuvwwx...xxxxxxwwwwwwvvutsr....
(PID.TID 0000.0001)     24 ............wwwwxyy.xxyy...wxx.yyyyyyyyyyyxxxxxxxxwwwwwwwvvwwxxyywww.xxxxxxxxxxwwwvvur....
(PID.TID 0000.0001)     23 ............xxxyyyz.xyyy...xxx..yyyyzzyyyyyyyyxxxxxxxxxwwwwwxxxwwwwwx....vwxxxxwwwwwvu....
(PID.TID 0000.0001)     22 w...........xxyyyzyyyyyz...xx.yyzzzzzzzzzzzzzyyzyyyyyyxxwwxxxxwvvvwwxw......yyyyxxxxxxwxxw
(PID.TID 0000.0001)     21 xxx........xxxxyyzzzzzzz+.....zyzzzzzzz++zzzzyyyyyyyyxxwvvwwwwvvvvvvvu........yyyyyyyyyxxx
(PID.TID 0000.0001)     20 xww.......xyyyyxyyzzzzzz+......z.zzzzz+++zzzzzzyyyyyxxxxwvwxwvuuuuuuut.........yyyyxxxxwww
(PID.TID 0000.0001)     19 vvv.......yyyyxwwxyzyyzzzzz...zzz.....++++++z++z+zzzyyyyxxxxwwvvvvvvvu...........yyxxxwwww
(PID.TID 0000.0001)     18 uut.......zzyyywwxyzyyyyzzyzzzzzz...z+z++++zz+++++++zzzyyyyxxwwwvvvvvtt..........yyxxwvvwv
(PID.TID 0000.0001)     17 uus.......z.yyyyyyxyzzyyyyyyyzz.....yzzzzzzzzzzzzzzzzzzyyyyxxwwvuuvvuut.........yyyxxwttvu
(PID.TID 0000.0001)     16 utr......yy.zyyyyxxxxxxxwxxxxy.......yyyyyyyyyyyyyyyyyyyyyyyxxwvvvuuutts........xyyyxwvuuu
(PID.TID 0000.0001)     15 ttrr....xxx.xxxwxwwwwvwwvvvww.........xwxxxxxxxxxxxxxxxxxyyyxwwwvvuttssrr......wxxxxxwwvuu
(PID.TID 0000.0001)     14 ttsq....xyxwwxwvwwwvutuuuuuuu.........wwvwwwwvwvvwwwvwvvwwwwwwvvvuuutssrr.....vwwwwwwwvvvu
(PID.TID 0000.0001)     13 tttr....wwwvvvtttuuuutttssttt.........vvvuuuuuuutttttuuuuuvwwwuuuttttssrr....uvvvvvvvvvvut
(PID.TID 0000.0001)     12 sssssstttutssssrrrrrstrqqrrssqqrrq....uuttssssrrrrrrrrrrrstttssssrssrrqp.....uuuttssttssss
(PID.TID 0000.0001)     11 poprsssrqqqqqrqppooopqpoppppppppppp..sssrrr.rqpppqqqqppppqqqoppqqqqrqqpp....prsrqqqqqppppq
(PID.TID 0000.0001)     10 lllmoooonmnnmnnnnmmmmmmlmmlllmnnnnon.qqqppp.ppppppooooooooonmnnnonnooooo..nmoponnmnnnnnmll
(PID.TID 0000.0001)      9 ihhiiiihhhhhhiiihiiiiihhhiiiijjkkmnllnnnnn.mmmmnnnnmmmmnnmmlklllllklllll.mllmmllkjiijjihhi
(PID.TID 0000.0001)      8 eeeeeeeedefgggffeeffggffffggghiiiijjijklklkkkkkkkklllkkkkjjiiijkjjjjjjkj.kkjjiihggffffedde
(PID.TID 0000.0001)      7 cccccddeedddefeddddddddddefeefffffgggghiiiiiijjjihhgggghhhhhghhhhhhhiiiihiihhgfeddddddcccc
(PID.TID 0000.0001)      6 abbcccddcccccdddddccdddddddccddddddeeeeffggggghhgeddddddeeeeeeefggggghggggffeedccbbbbbbbba
(PID.TID 0000.0001)      5 bbbcccccccccccccccccccccbbccccdddddddcccddeeddeedcbbbbbbccccccdddeeeeeddddddccbbbbaaaaaaab
(PID.TID 0000.0001)      4 bbbbbbbaaabbbbbbbbbbbbaabbabbbbcbbbbbbbbbbbbbbbbbbbabbaaabbbbbbbbbbbbbbbbb..a--aaabbbaaabb
(PID.TID 0000.0001)      3 bbbbaaa-a-............................bbaaaaaaaaaaaaaaaaaaaaaaaaaaaaaaaab..aaaaaaaabbbaaaa
(PID.TID 0000.0001)      2 ..........................................baaaaaaaaaaaa-------aa..aaaa.....aaaaaaaaaaaa...
(PID.TID 0000.0001)      1 ..........................................................................................
(PID.TID 0000.0001) // =======================================================
(PID.TID 0000.0001) // END OF FIELD                                          =
(PID.TID 0000.0001) // =======================================================
(PID.TID 0000.0001) 
(PID.TID 0000.0001)  MDS_READ_FIELD: opening global file: lev_s.bin
(PID.TID 0000.0001) // =======================================================
(PID.TID 0000.0001) // Field Initial Salinity at iteration          1
(PID.TID 0000.0001) // CMIN =          2.975276947021484E+01
(PID.TID 0000.0001) // CMAX =          3.747562789916992E+01
(PID.TID 0000.0001) // CINT =          2.860317936650029E-01
(PID.TID 0000.0001) // SYMBOLS (CMIN->CMAX): -abcdefghijklmnopqrstuvwxyz+
(PID.TID 0000.0001) //                  0.0: .
(PID.TID 0000.0001) // RANGE I (Lo:Hi:Step):(     1:    90:     1)
(PID.TID 0000.0001) // RANGE J (Lo:Hi:Step):(    40:     1:    -1)
(PID.TID 0000.0001) // RANGE K (Lo:Hi:Step):(   1:   1:   1)
(PID.TID 0000.0001) // =======================================================
(PID.TID 0000.0001) K =   1
(PID.TID 0000.0001)                I=10      I=20      I=30      I=40      I=50      I=60      I=70      I=80      I=90
(PID.TID 0000.0001) |--J--|123456789|123456789|123456789|123456789|123456789|123456789|123456789|123456789|123456789|
(PID.TID 0000.0001)     40 qrrrr.oonnooopqtutt..................................................................mnnop
(PID.TID 0000.0001)     39 rssrrrrrrrqqpn...ut.....................................................mmmm........opqqqr
(PID.TID 0000.0001)     38 ssrrqqqqrrqpo...........................................................lkkll......onoqrrs
(PID.TID 0000.0001)     37 ssr..................................................................hg...lln...qppqr.rrrs
(PID.TID 0000.0001)     36 rr.........................................lkji....................feeegikmoop.pqrssssssss
(PID.TID 0000.0001)     35 rr.................................kkkk..lllllki...jijjj...........aa-....opqrrrrrrrssttss
(PID.TID 0000.0001)     34 ...................................jlll.kklllllk.ijkkkjih..................hlpqrqrrsstts..
(PID.TID 0000.0001)     33 ....................................iklkkkkkkkkkjkkjjjjjjii.................jmprrsstttttt.
(PID.TID 0000.0001)     32 ....................................iklllkllllllllkkkkkkkji................gilpstuuttuuut.
(PID.TID 0000.0001)     31 ....................................lmnonnnnoooonnmmmmllkjj..............loopqtvvvuuuuuu..
(PID.TID 0000.0001)     30 ...................................pppppppqqqqpppoooonnmlkk............ptvxwwvvwvvvvvvvu..
(PID.TID 0000.0001)     29 .................................pqqrqqqqqqrrrqqppqqqpponmll...........vxxxxxxwwwwwxwwxw..
(PID.TID 0000.0001)     28 ...............................prrrrrqqrrrrrsrrsrssssssrqonmm.........wxxxxxxxyyyyyyyyxx..
(PID.TID 0000.0001)     27 ..............xx..............prrrrrrrrrssssssstttssssssrqpoop...uwww.wwxxxyyy++zzzzyy....
(PID.TID 0000.0001)     26 ..............wxx...........ppqrrrrrrsssrrstsstttssrrrrrrrqppqqp.wwwvvwwwwwxyy+++zzyxw....
(PID.TID 0000.0001)     25 ..............wxxv...kkk...ooopqrrrrrssrrrrrrrssssqqpppppppppppoo...vvutuuvvwxyyyxxvvu....
(PID.TID 0000.0001)     24 ............uvvwwur.lmlk...nmm.pqqqqrrrrrqqqqrrqqrpppppooooonmmmnooo.uuuuuuttuvvvuvuut....
(PID.TID 0000.0001)     23 ............vvuvtqp.lmml...mln..ppppqpqppppppqpppppppppqppponnnnnoopm....xvuuuvvvvuuut....
(PID.TID 0000.0001)     22 r...........vuttsqqpnppn...mm.oppqqrrqqqqqqppppqqrrrqqqrrppppoopooomjj......uuvvvvvuttssrr
(PID.TID 0000.0001)     21 qmm........ttsssssssrsqon.....opqqqqqqqrrrrqqqssssssrrrrrrrrpqqqppomll........tvvvvuttssrr
(PID.TID 0000.0001)     20 sqq.......sttssrrsrrrrpol......p.qrqpqrrrrrrrstttttsssrrsssrqrrrrqqqpo.........wwwvvvuuutt
(PID.TID 0000.0001)     19 tsr.......ssssrrrrpppppnmmm...oqq.....qrqqsrrstttuuuttssttssrrssrrrrqq...........wwwvuvvvv
(PID.TID 0000.0001)     18 wut.......ssrrrrrqppppppppoooorrr...poqqqprrrttttuuutuuuuuutttttttutsss..........yyxwwxwxx
(PID.TID 0000.0001)     17 wwu.......s.rrrrrrqppppqqqqqqqr.....rrsrqrsssuusrtuuuvvvwwvvvuuuuutttss.........xyzyyyyxxx
(PID.TID 0000.0001)     16 vvt......ss.qrrssrqrqpqrrrrrrr.......ssrrstsstusrsuuuvwwwwxxwwvvvuttttsr........yz+zzzxwww
(PID.TID 0000.0001)     15 utss....stt.rrssstttsrrsrstsr.........ssstttssttsuuttuvvvvwxwwwwwuttsssrr......xyyyyxyyxwv
(PID.TID 0000.0001)     14 utts....sstrrssstuuuuuuuuuutt.........stttuutttttttuttttttuvvvvvvutsrqrrr.....vxxwwwwxwvwv
(PID.TID 0000.0001)     13 uuut....ttttttttuuuuuvtuuuuuu.........ttttuutttttttuutsssstttttstsqrqqppp....uwwwvuvvvutvv
(PID.TID 0000.0001)     12 ttttttttttttttttttttttssuuuuutuuut....tttttttttttsssssrrrrrrrqqqqqppppoo.....rvvuuttttttuu
(PID.TID 0000.0001)     11 rqsttttttttuuttttsssssrrstttttttsss..ttttts.tsssrrrrqqqqqppppoonnooooooo....oruttttsssrqrs
(PID.TID 0000.0001)     10 pppqrssrqqrqpqrssrrqqqqqqrrrrrrrrrrs.sssssr.rssrrqqpppppppooooonnnoooonn..moqrrrqqqqqqqqqq
(PID.TID 0000.0001)      9 oonooooooooonnnooooooooooppppppqqqqqrrrqrq.pppqqqqqppppppppppoooooooooll.lmoqqqqppooooopoo
(PID.TID 0000.0001)      8 nnnoonooooooonnnnnnnoooonoonoooppopqqqqqqqppopppqqqpppppppppppppppooopon.lnopppoooonnnnooo
(PID.TID 0000.0001)      7 ooooooooooopponnnooooooonnnnnonnooooooooopppppppoooooooooopppppppppoopqnnmnoooonnnonnnnnno
(PID.TID 0000.0001)      6 oooonnoonnnnooooooooooooonnnnnnnnnnnnnnnnoooopppooooooooooooooppppppppppoooooooonnnnnmnnnn
(PID.TID 0000.0001)      5 oooonnnnnnnnnnnnnnnnnoooooonnnnnnonnnnnnnnnoooooooooooonnnnnnooooooopoooonoooonnnnnnnooooo
(PID.TID 0000.0001)      4 oooonnnooonnnnnnnnnnnnnnoooooonnnooooonnnooooooooppponnnnmmmnnnnmnnoonnnnn..nnnooooooooooo
(PID.TID 0000.0001)      3 ooonnnnnnn............................nnoooooonnooooonnnnnnnoonnnnnnnnmmm..ooopooooooooooo
(PID.TID 0000.0001)      2 ..........................................pppooooonnnnnnoooppppo..nnnn.....qqqpppoooooo...
(PID.TID 0000.0001)      1 ..........................................................................................
(PID.TID 0000.0001) // =======================================================
(PID.TID 0000.0001) // END OF FIELD                                          =
(PID.TID 0000.0001) // =======================================================
(PID.TID 0000.0001) 
(PID.TID 0000.0001) Start initial hydrostatic pressure computation
(PID.TID 0000.0001) Pressure is predetermined for buoyancyRelation OCEANIC
(PID.TID 0000.0001) 
(PID.TID 0000.0001)  MDS_READ_FIELD: opening global file: trenberth_taux.bin
(PID.TID 0000.0001)  MDS_READ_FIELD: opening global file: trenberth_tauy.bin
(PID.TID 0000.0001)  MDS_READ_FIELD: opening global file: ncep_qnet.bin
(PID.TID 0000.0001)  MDS_READ_FIELD: opening global file: ncep_emp.bin
(PID.TID 0000.0001)  MDS_READ_FIELD: opening global file: lev_sst.bin
(PID.TID 0000.0001)  MDS_READ_FIELD: opening global file: lev_sss.bin
(PID.TID 0000.0001) // =======================================================
(PID.TID 0000.0001) // Model current state
(PID.TID 0000.0001) // =======================================================
(PID.TID 0000.0001) 
(PID.TID 0000.0001) // =======================================================
(PID.TID 0000.0001) // Begin MONITOR dynamic field statistics
(PID.TID 0000.0001) // =======================================================
(PID.TID 0000.0001) %MON time_tsnumber                =                     0
(PID.TID 0000.0001) %MON time_secondsf                =   0.0000000000000E+00
(PID.TID 0000.0001) %MON dynstat_eta_max              =   0.0000000000000E+00
(PID.TID 0000.0001) %MON dynstat_eta_min              =   0.0000000000000E+00
(PID.TID 0000.0001) %MON dynstat_eta_mean             =   0.0000000000000E+00
(PID.TID 0000.0001) %MON dynstat_eta_sd               =   0.0000000000000E+00
(PID.TID 0000.0001) %MON dynstat_eta_del2             =   0.0000000000000E+00
(PID.TID 0000.0001) %MON dynstat_uvel_max             =   0.0000000000000E+00
(PID.TID 0000.0001) %MON dynstat_uvel_min             =   0.0000000000000E+00
(PID.TID 0000.0001) %MON dynstat_uvel_mean            =   0.0000000000000E+00
(PID.TID 0000.0001) %MON dynstat_uvel_sd              =   0.0000000000000E+00
(PID.TID 0000.0001) %MON dynstat_uvel_del2            =   0.0000000000000E+00
(PID.TID 0000.0001) %MON dynstat_vvel_max             =   0.0000000000000E+00
(PID.TID 0000.0001) %MON dynstat_vvel_min             =   0.0000000000000E+00
(PID.TID 0000.0001) %MON dynstat_vvel_mean            =   0.0000000000000E+00
(PID.TID 0000.0001) %MON dynstat_vvel_sd              =   0.0000000000000E+00
(PID.TID 0000.0001) %MON dynstat_vvel_del2            =   0.0000000000000E+00
(PID.TID 0000.0001) %MON dynstat_wvel_max             =   0.0000000000000E+00
(PID.TID 0000.0001) %MON dynstat_wvel_min             =   0.0000000000000E+00
(PID.TID 0000.0001) %MON dynstat_wvel_mean            =   0.0000000000000E+00
(PID.TID 0000.0001) %MON dynstat_wvel_sd              =   0.0000000000000E+00
(PID.TID 0000.0001) %MON dynstat_wvel_del2            =   0.0000000000000E+00
(PID.TID 0000.0001) %MON dynstat_theta_max            =   2.9733388900757E+01
(PID.TID 0000.0001) %MON dynstat_theta_min            =  -1.9000000000000E+00
(PID.TID 0000.0001) %MON dynstat_theta_mean           =   3.6197074666129E+00
(PID.TID 0000.0001) %MON dynstat_theta_sd             =   4.4174614518568E+00
(PID.TID 0000.0001) %MON dynstat_theta_del2           =   5.6229722638211E-03
(PID.TID 0000.0001) %MON dynstat_salt_max             =   3.7475627899170E+01
(PID.TID 0000.0001) %MON dynstat_salt_min             =   2.9752769470215E+01
(PID.TID 0000.0001) %MON dynstat_salt_mean            =   3.4718006161475E+01
(PID.TID 0000.0001) %MON dynstat_salt_sd              =   2.9628819587990E-01
(PID.TID 0000.0001) %MON dynstat_salt_del2            =   1.0127003139695E-03
(PID.TID 0000.0001) %MON dynstat_sst_max              =   2.9733388900757E+01
(PID.TID 0000.0001) %MON dynstat_sst_min              =  -1.9000000000000E+00
(PID.TID 0000.0001) %MON dynstat_sst_mean             =   1.8484768169451E+01
(PID.TID 0000.0001) %MON dynstat_sst_sd               =   9.1795873467430E+00
(PID.TID 0000.0001) %MON dynstat_sst_del2             =   2.7217991810411E-02
(PID.TID 0000.0001) %MON dynstat_sss_max              =   3.7475627899170E+01
(PID.TID 0000.0001) %MON dynstat_sss_min              =   2.9752769470215E+01
(PID.TID 0000.0001) %MON dynstat_sss_mean             =   3.4849925275207E+01
(PID.TID 0000.0001) %MON dynstat_sss_sd               =   9.6344930396289E-01
(PID.TID 0000.0001) %MON dynstat_sss_del2             =   8.0490524880020E-03
(PID.TID 0000.0001) %MON forcing_qnet_max             =   4.4161361694336E+02
(PID.TID 0000.0001) %MON forcing_qnet_min             =  -1.8132531738281E+02
(PID.TID 0000.0001) %MON forcing_qnet_mean            =  -1.6512526001044E+01
(PID.TID 0000.0001) %MON forcing_qnet_sd              =   1.0987288293460E+02
(PID.TID 0000.0001) %MON forcing_qnet_del2            =   1.0245701543512E+00
(PID.TID 0000.0001) %MON forcing_qsw_max              =   0.0000000000000E+00
(PID.TID 0000.0001) %MON forcing_qsw_min              =   0.0000000000000E+00
(PID.TID 0000.0001) %MON forcing_qsw_mean             =   0.0000000000000E+00
(PID.TID 0000.0001) %MON forcing_qsw_sd               =   0.0000000000000E+00
(PID.TID 0000.0001) %MON forcing_qsw_del2             =   0.0000000000000E+00
(PID.TID 0000.0001) %MON forcing_empmr_max            =   8.2174238968946E-05
(PID.TID 0000.0001) %MON forcing_empmr_min            =  -7.6155956207913E-05
(PID.TID 0000.0001) %MON forcing_empmr_mean           =   9.2293706211063E-07
(PID.TID 0000.0001) %MON forcing_empmr_sd             =   2.8800050217957E-05
(PID.TID 0000.0001) %MON forcing_empmr_del2           =   3.6757632549621E-07
(PID.TID 0000.0001) %MON forcing_fu_max               =   2.7877888083458E-01
(PID.TID 0000.0001) %MON forcing_fu_min               =  -1.7088057100773E-01
(PID.TID 0000.0001) %MON forcing_fu_mean              =   1.6001735152566E-02
(PID.TID 0000.0001) %MON forcing_fu_sd                =   9.1062350670783E-02
(PID.TID 0000.0001) %MON forcing_fu_del2              =   7.2483493833855E-04
(PID.TID 0000.0001) %MON forcing_fv_max               =   2.3312132060528E-01
(PID.TID 0000.0001) %MON forcing_fv_min               =  -1.7813690006733E-01
(PID.TID 0000.0001) %MON forcing_fv_mean              =  -5.2588977395051E-03
(PID.TID 0000.0001) %MON forcing_fv_sd                =   4.8248606070107E-02
(PID.TID 0000.0001) %MON forcing_fv_del2              =   4.9948324922575E-04
(PID.TID 0000.0001) %MON trAdv_CFL_u_max              =   0.0000000000000E+00
(PID.TID 0000.0001) %MON trAdv_CFL_v_max              =   0.0000000000000E+00
(PID.TID 0000.0001) %MON trAdv_CFL_w_max              =   0.0000000000000E+00
(PID.TID 0000.0001) %MON advcfl_uvel_max              =   0.0000000000000E+00
(PID.TID 0000.0001) %MON advcfl_vvel_max              =   0.0000000000000E+00
(PID.TID 0000.0001) %MON advcfl_wvel_max              =   0.0000000000000E+00
(PID.TID 0000.0001) %MON advcfl_W_hf_max              =   0.0000000000000E+00
(PID.TID 0000.0001) %MON pe_b_mean                    =   0.0000000000000E+00
(PID.TID 0000.0001) %MON ke_max                       =   0.0000000000000E+00
(PID.TID 0000.0001) %MON ke_mean                      =   0.0000000000000E+00
(PID.TID 0000.0001) %MON ke_vol                       =   1.3226782436723E+18
(PID.TID 0000.0001) %MON vort_r_min                   =   0.0000000000000E+00
(PID.TID 0000.0001) %MON vort_r_max                   =   0.0000000000000E+00
(PID.TID 0000.0001) %MON vort_a_mean                  =  -2.5274807396949E-05
(PID.TID 0000.0001) %MON vort_a_sd                    =   7.3604350271441E-05
(PID.TID 0000.0001) %MON vort_p_mean                  =  -3.1845655798840E-05
(PID.TID 0000.0001) %MON vort_p_sd                    =   1.3162570071703E-04
(PID.TID 0000.0001) %MON surfExpan_theta_mean         =   0.0000000000000E+00
(PID.TID 0000.0001) %MON surfExpan_salt_mean          =   0.0000000000000E+00
(PID.TID 0000.0001) // =======================================================
(PID.TID 0000.0001) // End MONITOR dynamic field statistics
(PID.TID 0000.0001) // =======================================================
(PID.TID 0000.0001) // =======================================================
(PID.TID 0000.0001) // Field Current uVel   at iteration          0
(PID.TID 0000.0001) // CMIN =          1.000000000000000E+32
(PID.TID 0000.0001) // CMAX =         -1.000000000000000E+32
(PID.TID 0000.0001) // CINT =          0.000000000000000E+00
(PID.TID 0000.0001) // SYMBOLS (CMIN->CMAX): -abcdefghijklmnopqrstuvwxyz+
(PID.TID 0000.0001) //                  0.0: .
(PID.TID 0000.0001) // RANGE I (Lo:Hi:Step):(     1:    90:     1)
(PID.TID 0000.0001) // RANGE J (Lo:Hi:Step):(    40:     1:    -1)
(PID.TID 0000.0001) // RANGE K (Lo:Hi:Step):(   1:   1:   1)
(PID.TID 0000.0001) // =======================================================
(PID.TID 0000.0001) // =======================================================
(PID.TID 0000.0001) // END OF FIELD                                          =
(PID.TID 0000.0001) // =======================================================
(PID.TID 0000.0001) 
(PID.TID 0000.0001) // =======================================================
(PID.TID 0000.0001) // Field Current vVel   at iteration          0
(PID.TID 0000.0001) // CMIN =          1.000000000000000E+32
(PID.TID 0000.0001) // CMAX =         -1.000000000000000E+32
(PID.TID 0000.0001) // CINT =          0.000000000000000E+00
(PID.TID 0000.0001) // SYMBOLS (CMIN->CMAX): -abcdefghijklmnopqrstuvwxyz+
(PID.TID 0000.0001) //                  0.0: .
(PID.TID 0000.0001) // RANGE I (Lo:Hi:Step):(     1:    90:     1)
(PID.TID 0000.0001) // RANGE J (Lo:Hi:Step):(    40:     1:    -1)
(PID.TID 0000.0001) // RANGE K (Lo:Hi:Step):(   1:   1:   1)
(PID.TID 0000.0001) // =======================================================
(PID.TID 0000.0001) // =======================================================
(PID.TID 0000.0001) // END OF FIELD                                          =
(PID.TID 0000.0001) // =======================================================
(PID.TID 0000.0001) 
(PID.TID 0000.0001) // =======================================================
(PID.TID 0000.0001) // Field Current theta  at iteration          0
(PID.TID 0000.0001) // CMIN =         -1.900000000000000E+00
(PID.TID 0000.0001) // CMAX =          2.973338890075684E+01
(PID.TID 0000.0001) // CINT =          1.171606996324327E+00
(PID.TID 0000.0001) // SYMBOLS (CMIN->CMAX): -abcdefghijklmnopqrstuvwxyz+
(PID.TID 0000.0001) //                  0.0: .
(PID.TID 0000.0001) // RANGE I (Lo:Hi:Step):(     1:    90:     1)
(PID.TID 0000.0001) // RANGE J (Lo:Hi:Step):(    40:     1:    -1)
(PID.TID 0000.0001) // RANGE K (Lo:Hi:Step):(   1:   1:   1)
(PID.TID 0000.0001) // =======================================================
(PID.TID 0000.0001) K =   1
(PID.TID 0000.0001)                I=10      I=20      I=30      I=40      I=50      I=60      I=70      I=80      I=90
(PID.TID 0000.0001) |--J--|123456789|123456789|123456789|123456789|123456789|123456789|123456789|123456789|123456789|
(PID.TID 0000.0001)     40 bccdd.baa----abdedd..................................................................bbbbb
(PID.TID 0000.0001)     39 ccdddddccbbbaa...ed.....................................................----........bbbbbb
(PID.TID 0000.0001)     38 fffgfedeedddc...........................................................-----......cbbbcde
(PID.TID 0000.0001)     37 ghh..................................................................bc...bbc...edeed.defg
(PID.TID 0000.0001)     36 hh.........................................ddcb....................dcccbabccdd.eefghhihhih
(PID.TID 0000.0001)     35 hh.................................aaab..dddeddd...ffggg...........ccc....ddeeeffghijjjjih
(PID.TID 0000.0001)     34 ...................................babb.deeeeeee.ffffgghh..................ccdffghijkkkj..
(PID.TID 0000.0001)     33 ....................................accdddeeeeefffffgghhiii.................bcfijkkllllkk.
(PID.TID 0000.0001)     32 ....................................bdddeffgffgghhhhhiiijjj................dccglmnmmmmlll.
(PID.TID 0000.0001)     31 ....................................fghiiiijjjjjjkkkkklllkk..............ikkjjmooooonnmm..
(PID.TID 0000.0001)     30 ...................................mmmnmmmmmmmmmmmmmnnnnnmm............moqrrrqrqqqpppooo..
(PID.TID 0000.0001)     29 .................................pqqqqqpppppppppoppoppppponm...........ssssssrrrrrqqqqpp..
(PID.TID 0000.0001)     28 ...............................prssssrrrsssrrrrrrrrrrrrrqqpoo.........uttssstssrssrrrqqq..
(PID.TID 0000.0001)     27 ..............vv..............stuttuuuuutuuuuuuuuuuttttssrrqqq...stuu.vvvuuuuutttttsss....
(PID.TID 0000.0001)     26 ..............vvv...........uuvvvvvwwwwwwwwvvvvvvvvvuuutttsssttv.uuvxxwwwwwwvvvvuuttsr....
(PID.TID 0000.0001)     25 ..............wwwx...xxx...vvvxxxxxyyxxxxxxxxxwwwwwvvvvvuuuuuvwwx...xxxxxxwwwwwwvvutsr....
(PID.TID 0000.0001)     24 ............wwwwxyy.xxyy...wxx.yyyyyyyyyyyxxxxxxxxwwwwwwwvvwwxxyywww.xxxxxxxxxxwwwvvur....
(PID.TID 0000.0001)     23 ............xxxyyyz.xyyy...xxx..yyyyzzyyyyyyyyxxxxxxxxxwwwwwxxxwwwwwx....vwxxxxwwwwwvu....
(PID.TID 0000.0001)     22 w...........xxyyyzyyyyyz...xx.yyzzzzzzzzzzzzzyyzyyyyyyxxwwxxxxwvvvwwxw......yyyyxxxxxxwxxw
(PID.TID 0000.0001)     21 xxx........xxxxyyzzzzzzz+.....zyzzzzzzz++zzzzyyyyyyyyxxwvvwwwwvvvvvvvu........yyyyyyyyyxxx
(PID.TID 0000.0001)     20 xww.......xyyyyxyyzzzzzz+......z.zzzzz+++zzzzzzyyyyyxxxxwvwxwvuuuuuuut.........yyyyxxxxwww
(PID.TID 0000.0001)     19 vvv.......yyyyxwwxyzyyzzzzz...zzz.....++++++z++z+zzzyyyyxxxxwwvvvvvvvu...........yyxxxwwww
(PID.TID 0000.0001)     18 uut.......zzyyywwxyzyyyyzzyzzzzzz...z+z++++zz+++++++zzzyyyyxxwwwvvvvvtt..........yyxxwvvwv
(PID.TID 0000.0001)     17 uus.......z.yyyyyyxyzzyyyyyyyzz.....yzzzzzzzzzzzzzzzzzzyyyyxxwwvuuvvuut.........yyyxxwttvu
(PID.TID 0000.0001)     16 utr......yy.zyyyyxxxxxxxwxxxxy.......yyyyyyyyyyyyyyyyyyyyyyyxxwvvvuuutts........xyyyxwvuuu
(PID.TID 0000.0001)     15 ttrr....xxx.xxxwxwwwwvwwvvvww.........xwxxxxxxxxxxxxxxxxxyyyxwwwvvuttssrr......wxxxxxwwvuu
(PID.TID 0000.0001)     14 ttsq....xyxwwxwvwwwvutuuuuuuu.........wwvwwwwvwvvwwwvwvvwwwwwwvvvuuutssrr.....vwwwwwwwvvvu
(PID.TID 0000.0001)     13 tttr....wwwvvvtttuuuutttssttt.........vvvuuuuuuutttttuuuuuvwwwuuuttttssrr....uvvvvvvvvvvut
(PID.TID 0000.0001)     12 sssssstttutssssrrrrrstrqqrrssqqrrq....uuttssssrrrrrrrrrrrstttssssrssrrqp.....uuuttssttssss
(PID.TID 0000.0001)     11 poprsssrqqqqqrqppooopqpoppppppppppp..sssrrr.rqpppqqqqppppqqqoppqqqqrqqpp....prsrqqqqqppppq
(PID.TID 0000.0001)     10 lllmoooonmnnmnnnnmmmmmmlmmlllmnnnnon.qqqppp.ppppppooooooooonmnnnonnooooo..nmoponnmnnnnnmll
(PID.TID 0000.0001)      9 ihhiiiihhhhhhiiihiiiiihhhiiiijjkkmnllnnnnn.mmmmnnnnmmmmnnmmlklllllklllll.mllmmllkjiijjihhi
(PID.TID 0000.0001)      8 eeeeeeeedefgggffeeffggffffggghiiiijjijklklkkkkkkkklllkkkkjjiiijkjjjjjjkj.kkjjiihggffffedde
(PID.TID 0000.0001)      7 cccccddeedddefeddddddddddefeefffffgggghiiiiiijjjihhgggghhhhhghhhhhhhiiiihiihhgfeddddddcccc
(PID.TID 0000.0001)      6 abbcccddcccccdddddccdddddddccddddddeeeeffggggghhgeddddddeeeeeeefggggghggggffeedccbbbbbbbba
(PID.TID 0000.0001)      5 bbbcccccccccccccccccccccbbccccdddddddcccddeeddeedcbbbbbbccccccdddeeeeeddddddccbbbbaaaaaaab
(PID.TID 0000.0001)      4 bbbbbbbaaabbbbbbbbbbbbaabbabbbbcbbbbbbbbbbbbbbbbbbbabbaaabbbbbbbbbbbbbbbbb..a--aaabbbaaabb
(PID.TID 0000.0001)      3 bbbbaaa-a-............................bbaaaaaaaaaaaaaaaaaaaaaaaaaaaaaaaab..aaaaaaaabbbaaaa
(PID.TID 0000.0001)      2 ..........................................baaaaaaaaaaaa-------aa..aaaa.....aaaaaaaaaaaa...
(PID.TID 0000.0001)      1 ..........................................................................................
(PID.TID 0000.0001) // =======================================================
(PID.TID 0000.0001) // END OF FIELD                                          =
(PID.TID 0000.0001) // =======================================================
(PID.TID 0000.0001) 
(PID.TID 0000.0001) // =======================================================
(PID.TID 0000.0001) // Field Current etaN   at iteration          0
(PID.TID 0000.0001) // CMIN =          1.000000000000000E+32
(PID.TID 0000.0001) // CMAX =         -1.000000000000000E+32
(PID.TID 0000.0001) // CINT =          0.000000000000000E+00
(PID.TID 0000.0001) // SYMBOLS (CMIN->CMAX): -abcdefghijklmnopqrstuvwxyz+
(PID.TID 0000.0001) //                  0.0: .
(PID.TID 0000.0001) // RANGE I (Lo:Hi:Step):(    -1:    92:     1)
(PID.TID 0000.0001) // RANGE J (Lo:Hi:Step):(    42:    -1:    -1)
(PID.TID 0000.0001) // RANGE K (Lo:Hi:Step):(   1:   1:   1)
(PID.TID 0000.0001) // =======================================================
(PID.TID 0000.0001) // =======================================================
(PID.TID 0000.0001) // END OF FIELD                                          =
(PID.TID 0000.0001) // =======================================================
(PID.TID 0000.0001) 
(PID.TID 0000.0001)  MDS_WRITE_FIELD: it,rec,kS,kL,kH=       0     1  15   1  15 file=U.0000000000
(PID.TID 0000.0001)  MDS_WRITE_FIELD: it,rec,kS,kL,kH=       0     1  15   1  15 file=V.0000000000
(PID.TID 0000.0001)  MDS_WRITE_FIELD: it,rec,kS,kL,kH=       0     1  15   1  15 file=T.0000000000
(PID.TID 0000.0001)  MDS_WRITE_FIELD: it,rec,kS,kL,kH=       0     1  15   1  15 file=S.0000000000
(PID.TID 0000.0001)  MDS_WRITE_FIELD: it,rec,kS,kL,kH=       0     1   1   1   1 file=Eta.0000000000
(PID.TID 0000.0001)  MDS_WRITE_FIELD: it,rec,kS,kL,kH=       0     1  15   1  15 file=W.0000000000
 EXTERNAL_FIELDS_LOAD,         0 : iP,iLd,i0,i1=   12    0   12    1 ; Wght=  0.5000000000  0.5000000000
 EXTERNAL_FIELDS_LOAD, it=         0 : Reading new data, i0,i1=   12    1 (prev=   12    0 )
(PID.TID 0000.0001)  MDS_READ_FIELD: opening global file: trenberth_taux.bin
(PID.TID 0000.0001)  MDS_READ_FIELD: opening global file: trenberth_taux.bin
(PID.TID 0000.0001)  MDS_READ_FIELD: opening global file: trenberth_tauy.bin
(PID.TID 0000.0001)  MDS_READ_FIELD: opening global file: trenberth_tauy.bin
(PID.TID 0000.0001)  MDS_READ_FIELD: opening global file: ncep_qnet.bin
(PID.TID 0000.0001)  MDS_READ_FIELD: opening global file: ncep_qnet.bin
(PID.TID 0000.0001)  MDS_READ_FIELD: opening global file: ncep_emp.bin
(PID.TID 0000.0001)  MDS_READ_FIELD: opening global file: ncep_emp.bin
(PID.TID 0000.0001)  MDS_READ_FIELD: opening global file: lev_sst.bin
(PID.TID 0000.0001)  MDS_READ_FIELD: opening global file: lev_sst.bin
(PID.TID 0000.0001)  MDS_READ_FIELD: opening global file: lev_sss.bin
(PID.TID 0000.0001)  MDS_READ_FIELD: opening global file: lev_sss.bin
 EXTERNAL_FIELDS_LOAD: (fu0,1),fu,fv= -4.5368E-02 -3.5633E-02 -4.0500E-02 -6.3753E-02
 EXTERNAL_FIELDS_LOAD: SST,SSS,Q,E-P=  5.3151E-02  3.4364E+01  2.6510E+02  1.0843E-05
DEBUG_STATS_RL:          Uvel (THERMODYNAMICS)  min=  1.00000000000000E-02
DEBUG_STATS_RL:          Uvel (THERMODYNAMICS)  max=  1.00000000000000E-02
DEBUG_STATS_RL:          Uvel (THERMODYNAMICS) mean=  9.99999999999359E-03
DEBUG_STATS_RL:          Uvel (THERMODYNAMICS) S.D.=  6.40806852025833E-15
DEBUG_STATS_RL:          Vvel (THERMODYNAMICS)  min=  1.00000000000000E-02
DEBUG_STATS_RL:          Vvel (THERMODYNAMICS)  max=  1.00000000000000E-02
DEBUG_STATS_RL:          Vvel (THERMODYNAMICS) mean=  9.99999999999359E-03
DEBUG_STATS_RL:          Vvel (THERMODYNAMICS) S.D.=  6.40806852025833E-15
DEBUG_STATS_RL:          Wvel (THERMODYNAMICS)  min=  0.00000000000000E+00
DEBUG_STATS_RL:          Wvel (THERMODYNAMICS)  max=  0.00000000000000E+00
DEBUG_STATS_RL:          Wvel (THERMODYNAMICS) mean=  0.00000000000000E+00
DEBUG_STATS_RL:          Wvel (THERMODYNAMICS) S.D.=  0.00000000000000E+00
DEBUG_STATS_RL:         Theta (THERMODYNAMICS)  min= -1.89811689822758E+00
DEBUG_STATS_RL:         Theta (THERMODYNAMICS)  max=  2.97603404534641E+01
DEBUG_STATS_RL:         Theta (THERMODYNAMICS) mean=  3.20548111970191E+00
DEBUG_STATS_RL:         Theta (THERMODYNAMICS) S.D.=  5.84763889153121E+00
DEBUG_STATS_RL:          Salt (THERMODYNAMICS)  min=  1.00000000000000E-02
DEBUG_STATS_RL:          Salt (THERMODYNAMICS)  max=  3.74775050894100E+01
DEBUG_STATS_RL:          Salt (THERMODYNAMICS) mean=  1.88551619810996E+01
DEBUG_STATS_RL:          Salt (THERMODYNAMICS) S.D.=  1.73006240801044E+01
DEBUG_STATS_RL:         GtNm1 (THERMODYNAMICS)  min= -1.97843721817434E-06
DEBUG_STATS_RL:         GtNm1 (THERMODYNAMICS)  max=  1.39246144941358E-06
DEBUG_STATS_RL:         GtNm1 (THERMODYNAMICS) mean=  5.16483482951364E-09
DEBUG_STATS_RL:         GtNm1 (THERMODYNAMICS) S.D.=  1.60735795199115E-07
DEBUG_STATS_RL:         GsNm1 (THERMODYNAMICS)  min= -4.52233791591069E-07
DEBUG_STATS_RL:         GsNm1 (THERMODYNAMICS)  max=  2.08909882982600E-07
DEBUG_STATS_RL:         GsNm1 (THERMODYNAMICS) mean= -6.74314889774227E-11
DEBUG_STATS_RL:         GsNm1 (THERMODYNAMICS) S.D.=  8.20028305018816E-09
DEBUG_STATS_RL:                EtaN (DYNAMICS)  min=  1.00000000000000E-02
DEBUG_STATS_RL:                EtaN (DYNAMICS)  max=  1.00000000000000E-02
DEBUG_STATS_RL:                EtaN (DYNAMICS) mean=  1.00000000000004E-02
DEBUG_STATS_RL:                EtaN (DYNAMICS) S.D.=  3.90312782094782E-16
DEBUG_STATS_RL:                Uvel (DYNAMICS)  min=  1.00000000000000E-02
DEBUG_STATS_RL:                Uvel (DYNAMICS)  max=  1.00000000000000E-02
DEBUG_STATS_RL:                Uvel (DYNAMICS) mean=  9.99999999999359E-03
DEBUG_STATS_RL:                Uvel (DYNAMICS) S.D.=  6.40806852025833E-15
DEBUG_STATS_RL:                Vvel (DYNAMICS)  min=  1.00000000000000E-02
DEBUG_STATS_RL:                Vvel (DYNAMICS)  max=  1.00000000000000E-02
DEBUG_STATS_RL:                Vvel (DYNAMICS) mean=  9.99999999999359E-03
DEBUG_STATS_RL:                Vvel (DYNAMICS) S.D.=  6.40806852025833E-15
DEBUG_STATS_RL:                Wvel (DYNAMICS)  min=  0.00000000000000E+00
DEBUG_STATS_RL:                Wvel (DYNAMICS)  max=  0.00000000000000E+00
DEBUG_STATS_RL:                Wvel (DYNAMICS) mean=  0.00000000000000E+00
DEBUG_STATS_RL:                Wvel (DYNAMICS) S.D.=  0.00000000000000E+00
DEBUG_STATS_RL:               Theta (DYNAMICS)  min= -1.89811689822758E+00
DEBUG_STATS_RL:               Theta (DYNAMICS)  max=  2.97603404534641E+01
DEBUG_STATS_RL:               Theta (DYNAMICS) mean=  3.20548111970191E+00
DEBUG_STATS_RL:               Theta (DYNAMICS) S.D.=  5.84763889153121E+00
DEBUG_STATS_RL:                Salt (DYNAMICS)  min=  1.00000000000000E-02
DEBUG_STATS_RL:                Salt (DYNAMICS)  max=  3.74775050894100E+01
DEBUG_STATS_RL:                Salt (DYNAMICS) mean=  1.88551619810996E+01
DEBUG_STATS_RL:                Salt (DYNAMICS) S.D.=  1.73006240801044E+01
DEBUG_STATS_RL:                  Gu (DYNAMICS)  min= -8.95823657093090E-03
DEBUG_STATS_RL:                  Gu (DYNAMICS)  max=  2.75306790371890E-02
DEBUG_STATS_RL:                  Gu (DYNAMICS) mean=  9.61218569457707E-03
DEBUG_STATS_RL:                  Gu (DYNAMICS) S.D.=  1.89554952421283E-03
DEBUG_STATS_RL:                  Gv (DYNAMICS)  min= -1.28604881154739E-02
DEBUG_STATS_RL:                  Gv (DYNAMICS)  max=  4.12992671114462E-02
DEBUG_STATS_RL:                  Gv (DYNAMICS) mean=  1.05697270116725E-02
DEBUG_STATS_RL:                  Gv (DYNAMICS) S.D.=  3.70068119631025E-03
DEBUG_STATS_RL:               GuNm1 (DYNAMICS)  min= -1.03778568573791E-05
DEBUG_STATS_RL:               GuNm1 (DYNAMICS)  max=  1.05280923319109E-05
DEBUG_STATS_RL:               GuNm1 (DYNAMICS) mean= -4.83695928624635E-08
DEBUG_STATS_RL:               GuNm1 (DYNAMICS) S.D.=  1.41907791761184E-06
DEBUG_STATS_RL:               GvNm1 (DYNAMICS)  min= -1.24848512003782E-05
DEBUG_STATS_RL:               GvNm1 (DYNAMICS)  max=  1.77032915829798E-05
DEBUG_STATS_RL:               GvNm1 (DYNAMICS) mean=  7.64643235483958E-07
DEBUG_STATS_RL:               GvNm1 (DYNAMICS) S.D.=  2.90184653905181E-06
DEBUG_STATS_RL:               GtNm1 (DYNAMICS)  min= -1.97843721817434E-06
DEBUG_STATS_RL:               GtNm1 (DYNAMICS)  max=  1.39246144941358E-06
DEBUG_STATS_RL:               GtNm1 (DYNAMICS) mean=  5.16483482951364E-09
DEBUG_STATS_RL:               GtNm1 (DYNAMICS) S.D.=  1.60735795199115E-07
DEBUG_STATS_RL:               GsNm1 (DYNAMICS)  min= -4.52233791591069E-07
DEBUG_STATS_RL:               GsNm1 (DYNAMICS)  max=  2.08909882982600E-07
DEBUG_STATS_RL:               GsNm1 (DYNAMICS) mean= -6.74314889774227E-11
DEBUG_STATS_RL:               GsNm1 (DYNAMICS) S.D.=  8.20028305018816E-09
(PID.TID 0000.0001) SOLVE_FOR_PRESSURE: putPmEinXvector =    F
DEBUG_STATS_RL:    cg2d_b (SOLVE_FOR_PRESSURE)  min= -5.01646914716604E+04
DEBUG_STATS_RL:    cg2d_b (SOLVE_FOR_PRESSURE)  max=  3.05843189764370E+04
DEBUG_STATS_RL:    cg2d_b (SOLVE_FOR_PRESSURE) mean=  6.21173429294226E-02
DEBUG_STATS_RL:    cg2d_b (SOLVE_FOR_PRESSURE) S.D.=  6.16959806206793E+03
 cg2d: Sum(rhs),rhsMax =   2.86659091611572E-03  3.29495124809342E+00
(PID.TID 0000.0001)  cg2d: iter=     1 ; resid.=  3.30361919748703E+00
(PID.TID 0000.0001)  cg2d: iter=     2 ; resid.=  2.83285837031435E+00
(PID.TID 0000.0001)  cg2d: iter=     3 ; resid.=  2.35160223745604E+00
(PID.TID 0000.0001)  cg2d: iter=     4 ; resid.=  1.99103161024169E+00
(PID.TID 0000.0001)  cg2d: iter=     5 ; resid.=  1.71558527945399E+00
(PID.TID 0000.0001)  cg2d: iter=     6 ; resid.=  1.46030943344476E+00
(PID.TID 0000.0001)  cg2d: iter=     7 ; resid.=  1.28320615866029E+00
(PID.TID 0000.0001)  cg2d: iter=     8 ; resid.=  1.08871113615635E+00
(PID.TID 0000.0001)  cg2d: iter=     9 ; resid.=  8.63414889489070E-01
(PID.TID 0000.0001)  cg2d: iter=    10 ; resid.=  7.25210145500782E-01
(PID.TID 0000.0001)  cg2d: iter=    11 ; resid.=  6.68968182784154E-01
(PID.TID 0000.0001)  cg2d: iter=    12 ; resid.=  5.90897053628891E-01
(PID.TID 0000.0001)  cg2d: iter=    13 ; resid.=  5.11255645323693E-01
(PID.TID 0000.0001)  cg2d: iter=    14 ; resid.=  4.43144794938457E-01
(PID.TID 0000.0001)  cg2d: iter=    15 ; resid.=  3.95491185076059E-01
(PID.TID 0000.0001)  cg2d: iter=    16 ; resid.=  3.39382841729903E-01
(PID.TID 0000.0001)  cg2d: iter=    17 ; resid.=  2.87944147024327E-01
(PID.TID 0000.0001)  cg2d: iter=    18 ; resid.=  2.34739355285705E-01
(PID.TID 0000.0001)  cg2d: iter=    19 ; resid.=  1.91209140742922E-01
(PID.TID 0000.0001)  cg2d: iter=    20 ; resid.=  1.54531090152251E-01
(PID.TID 0000.0001)  cg2d: iter=    21 ; resid.=  1.34935433985332E-01
(PID.TID 0000.0001)  cg2d: iter=    22 ; resid.=  1.08264465909275E-01
(PID.TID 0000.0001)  cg2d: iter=    23 ; resid.=  8.78463580361428E-02
(PID.TID 0000.0001)  cg2d: iter=    24 ; resid.=  7.35001821008335E-02
(PID.TID 0000.0001)  cg2d: iter=    25 ; resid.=  5.35346861970227E-02
(PID.TID 0000.0001)  cg2d: iter=    26 ; resid.=  4.24402599031851E-02
(PID.TID 0000.0001)  cg2d: iter=    27 ; resid.=  3.48498945466611E-02
(PID.TID 0000.0001)  cg2d: iter=    28 ; resid.=  2.92749752957238E-02
(PID.TID 0000.0001)  cg2d: iter=    29 ; resid.=  2.55262295836159E-02
(PID.TID 0000.0001)  cg2d: iter=    30 ; resid.=  2.48383626244365E-02
(PID.TID 0000.0001)  cg2d: iter=    31 ; resid.=  2.05846134557178E-02
(PID.TID 0000.0001)  cg2d: iter=    32 ; resid.=  1.47120789502501E-02
(PID.TID 0000.0001)  cg2d: iter=    33 ; resid.=  1.09527008865371E-02
(PID.TID 0000.0001)  cg2d: iter=    34 ; resid.=  8.96966306919180E-03
(PID.TID 0000.0001)  cg2d: iter=    35 ; resid.=  7.69407570261257E-03
(PID.TID 0000.0001)  cg2d: iter=    36 ; resid.=  5.81920662405927E-03
(PID.TID 0000.0001)  cg2d: iter=    37 ; resid.=  4.57035129098257E-03
(PID.TID 0000.0001)  cg2d: iter=    38 ; resid.=  3.73147734417170E-03
(PID.TID 0000.0001)  cg2d: iter=    39 ; resid.=  3.10685217318259E-03
(PID.TID 0000.0001)  cg2d: iter=    40 ; resid.=  2.58771637844881E-03
(PID.TID 0000.0001)  cg2d: iter=    41 ; resid.=  2.06954763418385E-03
(PID.TID 0000.0001)  cg2d: iter=    42 ; resid.=  1.74939685185290E-03
(PID.TID 0000.0001)  cg2d: iter=    43 ; resid.=  1.43806514520434E-03
(PID.TID 0000.0001)  cg2d: iter=    44 ; resid.=  1.08215796578826E-03
(PID.TID 0000.0001)  cg2d: iter=    45 ; resid.=  9.09054137310524E-04
(PID.TID 0000.0001)  cg2d: iter=    46 ; resid.=  7.71967150264353E-04
(PID.TID 0000.0001)  cg2d: iter=    47 ; resid.=  6.68270672729665E-04
(PID.TID 0000.0001)  cg2d: iter=    48 ; resid.=  5.49147014735410E-04
(PID.TID 0000.0001)  cg2d: iter=    49 ; resid.=  4.62797765407567E-04
(PID.TID 0000.0001)  cg2d: iter=    50 ; resid.=  4.04722832668045E-04
(PID.TID 0000.0001)  cg2d: iter=    51 ; resid.=  3.36377021482683E-04
(PID.TID 0000.0001)  cg2d: iter=    52 ; resid.=  3.10228064555796E-04
(PID.TID 0000.0001)  cg2d: iter=    53 ; resid.=  2.57822382397407E-04
(PID.TID 0000.0001)  cg2d: iter=    54 ; resid.=  2.16244739648141E-04
(PID.TID 0000.0001)  cg2d: iter=    55 ; resid.=  1.89720058450843E-04
(PID.TID 0000.0001)  cg2d: iter=    56 ; resid.=  1.48368351630958E-04
(PID.TID 0000.0001)  cg2d: iter=    57 ; resid.=  1.13010172058077E-04
(PID.TID 0000.0001)  cg2d: iter=    58 ; resid.=  8.60268268617109E-05
(PID.TID 0000.0001)  cg2d: iter=    59 ; resid.=  6.97560263303138E-05
(PID.TID 0000.0001)  cg2d: iter=    60 ; resid.=  5.58271174086416E-05
(PID.TID 0000.0001)  cg2d: iter=    61 ; resid.=  5.00902432618465E-05
(PID.TID 0000.0001)  cg2d: iter=    62 ; resid.=  4.01943038764646E-05
(PID.TID 0000.0001)  cg2d: iter=    63 ; resid.=  2.73439217935005E-05
(PID.TID 0000.0001)  cg2d: iter=    64 ; resid.=  2.07237112588848E-05
(PID.TID 0000.0001)  cg2d: iter=    65 ; resid.=  1.66816699988557E-05
(PID.TID 0000.0001)  cg2d: iter=    66 ; resid.=  1.47009290214425E-05
(PID.TID 0000.0001)  cg2d: iter=    67 ; resid.=  1.32516711782196E-05
(PID.TID 0000.0001)  cg2d: iter=    68 ; resid.=  1.10534520539482E-05
(PID.TID 0000.0001)  cg2d: iter=    69 ; resid.=  9.17098252156197E-06
(PID.TID 0000.0001)  cg2d: iter=    70 ; resid.=  7.36114622441387E-06
(PID.TID 0000.0001)  cg2d: iter=    71 ; resid.=  5.31781029274138E-06
(PID.TID 0000.0001)  cg2d: iter=    72 ; resid.=  4.20427841836419E-06
(PID.TID 0000.0001)  cg2d: iter=    73 ; resid.=  3.31349494285523E-06
(PID.TID 0000.0001)  cg2d: iter=    74 ; resid.=  2.81136539520520E-06
(PID.TID 0000.0001)  cg2d: iter=    75 ; resid.=  2.36221819409270E-06
(PID.TID 0000.0001)  cg2d: iter=    76 ; resid.=  1.98718962799620E-06
(PID.TID 0000.0001)  cg2d: iter=    77 ; resid.=  1.68776270694280E-06
(PID.TID 0000.0001)  cg2d: iter=    78 ; resid.=  1.36596965171444E-06
(PID.TID 0000.0001)  cg2d: iter=    79 ; resid.=  1.13952552289383E-06
(PID.TID 0000.0001)  cg2d: iter=    80 ; resid.=  1.00696019907464E-06
(PID.TID 0000.0001)  cg2d: iter=    81 ; resid.=  8.51355471860947E-07
(PID.TID 0000.0001)  cg2d: iter=    82 ; resid.=  7.12981738337946E-07
(PID.TID 0000.0001)  cg2d: iter=    83 ; resid.=  5.94255631501006E-07
(PID.TID 0000.0001)  cg2d: iter=    84 ; resid.=  4.49377364999141E-07
(PID.TID 0000.0001)  cg2d: iter=    85 ; resid.=  3.72069979469947E-07
(PID.TID 0000.0001)  cg2d: iter=    86 ; resid.=  3.09008018117097E-07
(PID.TID 0000.0001)  cg2d: iter=    87 ; resid.=  2.65395579258872E-07
(PID.TID 0000.0001)  cg2d: iter=    88 ; resid.=  2.34529473960734E-07
(PID.TID 0000.0001)  cg2d: iter=    89 ; resid.=  1.92718049654336E-07
(PID.TID 0000.0001)  cg2d: iter=    90 ; resid.=  1.55330248824671E-07
(PID.TID 0000.0001)  cg2d: iter=    91 ; resid.=  1.17644032288841E-07
(PID.TID 0000.0001)  cg2d: iter=    92 ; resid.=  8.98645317922964E-08
(PID.TID 0000.0001)  cg2d: iter=    93 ; resid.=  6.25125072866453E-08
(PID.TID 0000.0001)  cg2d: iter=    94 ; resid.=  4.74808591143778E-08
(PID.TID 0000.0001)  cg2d: iter=    95 ; resid.=  3.68867939576670E-08
(PID.TID 0000.0001)  cg2d: iter=    96 ; resid.=  2.77063689940949E-08
(PID.TID 0000.0001)  cg2d: iter=    97 ; resid.=  2.13862752122977E-08
(PID.TID 0000.0001)  cg2d: iter=    98 ; resid.=  1.65800778765490E-08
(PID.TID 0000.0001)  cg2d: iter=    99 ; resid.=  1.24855348172571E-08
(PID.TID 0000.0001)  cg2d: iter=   100 ; resid.=  1.05355020953176E-08
(PID.TID 0000.0001)  cg2d: iter=   101 ; resid.=  7.42132725750833E-09
(PID.TID 0000.0001)  cg2d: iter=   102 ; resid.=  5.12665468850283E-09
(PID.TID 0000.0001)  cg2d: iter=   103 ; resid.=  4.01924714321929E-09
(PID.TID 0000.0001)  cg2d: iter=   104 ; resid.=  3.25048989454259E-09
(PID.TID 0000.0001)  cg2d: iter=   105 ; resid.=  2.48970085782142E-09
(PID.TID 0000.0001)  cg2d: iter=   106 ; resid.=  1.94811795514739E-09
(PID.TID 0000.0001)  cg2d: iter=   107 ; resid.=  1.69088680593799E-09
(PID.TID 0000.0001)  cg2d: iter=   108 ; resid.=  1.42789626880559E-09
(PID.TID 0000.0001)  cg2d: iter=   109 ; resid.=  1.10963612194632E-09
(PID.TID 0000.0001)  cg2d: iter=   110 ; resid.=  9.14548532160626E-10
(PID.TID 0000.0001)  cg2d: iter=   111 ; resid.=  7.71221309922329E-10
(PID.TID 0000.0001)  cg2d: iter=   112 ; resid.=  6.20621624916841E-10
(PID.TID 0000.0001)  cg2d: iter=   113 ; resid.=  4.87612492258919E-10
(PID.TID 0000.0001)  cg2d: iter=   114 ; resid.=  3.91244847107538E-10
(PID.TID 0000.0001)  cg2d: iter=   115 ; resid.=  3.22625444209084E-10
(PID.TID 0000.0001)  cg2d: iter=   116 ; resid.=  2.81395316050574E-10
(PID.TID 0000.0001)  cg2d: iter=   117 ; resid.=  2.23444471376462E-10
(PID.TID 0000.0001)  cg2d: iter=   118 ; resid.=  1.98276642932133E-10
(PID.TID 0000.0001)  cg2d: iter=   119 ; resid.=  1.65527205415767E-10
(PID.TID 0000.0001)  cg2d: iter=   120 ; resid.=  1.25730513793542E-10
(PID.TID 0000.0001)  cg2d: iter=   121 ; resid.=  9.28573328646003E-11
(PID.TID 0000.0001)  cg2d: iter=   122 ; resid.=  7.18010186431784E-11
(PID.TID 0000.0001)  cg2d: iter=   123 ; resid.=  5.20752907817757E-11
(PID.TID 0000.0001)  cg2d: iter=   124 ; resid.=  3.76767093330519E-11
(PID.TID 0000.0001)  cg2d: iter=   125 ; resid.=  2.78658899076187E-11
(PID.TID 0000.0001)  cg2d: iter=   126 ; resid.=  2.20222555282548E-11
(PID.TID 0000.0001)  cg2d: iter=   127 ; resid.=  1.62189282225434E-11
(PID.TID 0000.0001)  cg2d: iter=   128 ; resid.=  1.15658045739791E-11
(PID.TID 0000.0001)  cg2d: iter=   129 ; resid.=  8.34027230114238E-12
(PID.TID 0000.0001)  cg2d: iter=   130 ; resid.=  5.87911140084667E-12
(PID.TID 0000.0001)  cg2d: iter=   131 ; resid.=  4.53487274753143E-12
(PID.TID 0000.0001)  cg2d: iter=   132 ; resid.=  3.65147657977635E-12
(PID.TID 0000.0001)  cg2d: iter=   133 ; resid.=  2.81019857549533E-12
(PID.TID 0000.0001)  cg2d: iter=   134 ; resid.=  2.29295228325194E-12
(PID.TID 0000.0001)  cg2d: iter=   135 ; resid.=  1.79256503486005E-12
(PID.TID 0000.0001)  cg2d: iter=   136 ; resid.=  1.30844471379116E-12
(PID.TID 0000.0001)  cg2d: iter=   137 ; resid.=  9.86015903611276E-13
(PID.TID 0000.0001)  cg2d: iter=   138 ; resid.=  7.11192894627982E-13
(PID.TID 0000.0001)  cg2d: iter=   139 ; resid.=  5.38151303758867E-13
(PID.TID 0000.0001)  cg2d: iter=   140 ; resid.=  3.99605560928390E-13
(PID.TID 0000.0001)  cg2d: iter=   141 ; resid.=  2.96454648516339E-13
(PID.TID 0000.0001)  cg2d: iter=   142 ; resid.=  1.99621042808218E-13
(PID.TID 0000.0001)  cg2d: iter=   143 ; resid.=  1.58807049593469E-13
(PID.TID 0000.0001)  cg2d: iter=   144 ; resid.=  1.16731975030369E-13
(PID.TID 0000.0001)  cg2d: iter=   145 ; resid.=  8.41766163912662E-14
DEBUG_STATS_RL:    cg2d_x (SOLVE_FOR_PRESSURE)  min= -2.38527033516348E+01
DEBUG_STATS_RL:    cg2d_x (SOLVE_FOR_PRESSURE)  max=  1.97553590407550E+01
DEBUG_STATS_RL:    cg2d_x (SOLVE_FOR_PRESSURE) mean= -9.01385188406560E-01
DEBUG_STATS_RL:    cg2d_x (SOLVE_FOR_PRESSURE) S.D.=  7.07417553213022E+00
(PID.TID 0000.0001)      cg2d_init_res =   5.91714793564504E+00
(PID.TID 0000.0001)      cg2d_iters(min,last) =      -1     145
(PID.TID 0000.0001)      cg2d_last_res =   8.41766163912662E-14
(PID.TID 0000.0001) // =======================================================
(PID.TID 0000.0001) // Begin MONITOR dynamic field statistics
(PID.TID 0000.0001) // =======================================================
(PID.TID 0000.0001) %MON time_tsnumber                =                     1
(PID.TID 0000.0001) %MON time_secondsf                =   8.6400000000000E+04
(PID.TID 0000.0001) %MON dynstat_eta_max              =   2.0137980673552E+00
(PID.TID 0000.0001) %MON dynstat_eta_min              =  -2.4314682315630E+00
(PID.TID 0000.0001) %MON dynstat_eta_mean             =  -6.4811745051937E-05
(PID.TID 0000.0001) %MON dynstat_eta_sd               =   8.1223577047981E-01
(PID.TID 0000.0001) %MON dynstat_eta_del2             =   3.3151684549784E-03
(PID.TID 0000.0001) %MON dynstat_uvel_max             =   6.2353948710302E-02
(PID.TID 0000.0001) %MON dynstat_uvel_min             =  -2.0230155806262E-02
(PID.TID 0000.0001) %MON dynstat_uvel_mean            =   5.6963412408020E-03
(PID.TID 0000.0001) %MON dynstat_uvel_sd              =   2.8718075183989E-03
(PID.TID 0000.0001) %MON dynstat_uvel_del2            =   2.7125049218389E-05
(PID.TID 0000.0001) %MON dynstat_vvel_max             =   5.6755163701858E-02
(PID.TID 0000.0001) %MON dynstat_vvel_min             =  -1.9582946662432E-02
(PID.TID 0000.0001) %MON dynstat_vvel_mean            =   6.0438022457293E-03
(PID.TID 0000.0001) %MON dynstat_vvel_sd              =   3.6095078536977E-03
(PID.TID 0000.0001) %MON dynstat_vvel_del2            =   3.0173182330781E-05
(PID.TID 0000.0001) %MON dynstat_wvel_max             =   8.4238566754786E-05
(PID.TID 0000.0001) %MON dynstat_wvel_min             =  -1.3678661343183E-04
(PID.TID 0000.0001) %MON dynstat_wvel_mean            =   4.9773122656705E-22
(PID.TID 0000.0001) %MON dynstat_wvel_sd              =   1.2355636297555E-05
(PID.TID 0000.0001) %MON dynstat_wvel_del2            =   1.3473084968949E-07
(PID.TID 0000.0001) %MON dynstat_theta_max            =   2.9760340453464E+01
(PID.TID 0000.0001) %MON dynstat_theta_min            =  -1.8981168982276E+00
(PID.TID 0000.0001) %MON dynstat_theta_mean           =   3.6296021488063E+00
(PID.TID 0000.0001) %MON dynstat_theta_sd             =   4.4172909977949E+00
(PID.TID 0000.0001) %MON dynstat_theta_del2           =   5.6239016582275E-03
(PID.TID 0000.0001) %MON dynstat_salt_max             =   3.7477505089410E+01
(PID.TID 0000.0001) %MON dynstat_salt_min             =   2.9765178121502E+01
(PID.TID 0000.0001) %MON dynstat_salt_mean            =   3.4728003302668E+01
(PID.TID 0000.0001) %MON dynstat_salt_sd              =   2.9616298853904E-01
(PID.TID 0000.0001) %MON dynstat_salt_del2            =   1.0150080470973E-03
(PID.TID 0000.0001) %MON dynstat_sst_max              =   2.9760340453464E+01
(PID.TID 0000.0001) %MON dynstat_sst_min              =  -1.8981168982276E+00
(PID.TID 0000.0001) %MON dynstat_sst_mean             =   1.8499367001256E+01
(PID.TID 0000.0001) %MON dynstat_sst_sd               =   9.1752513554357E+00
(PID.TID 0000.0001) %MON dynstat_sst_del2             =   2.7146591933308E-02
(PID.TID 0000.0001) %MON dynstat_sss_max              =   3.7477505089410E+01
(PID.TID 0000.0001) %MON dynstat_sss_min              =   2.9765178121502E+01
(PID.TID 0000.0001) %MON dynstat_sss_mean             =   3.4859584678156E+01
(PID.TID 0000.0001) %MON dynstat_sss_sd               =   9.6352528527297E-01
(PID.TID 0000.0001) %MON dynstat_sss_del2             =   8.0302069022847E-03
(PID.TID 0000.0001) %MON forcing_qnet_max             =   4.2589080810547E+02
(PID.TID 0000.0001) %MON forcing_qnet_min             =  -1.8702698516846E+02
(PID.TID 0000.0001) %MON forcing_qnet_mean            =  -1.6700205338390E+01
(PID.TID 0000.0001) %MON forcing_qnet_sd              =   1.1285666794876E+02
(PID.TID 0000.0001) %MON forcing_qnet_del2            =   9.9079877721394E-01
(PID.TID 0000.0001) %MON forcing_qsw_max              =   0.0000000000000E+00
(PID.TID 0000.0001) %MON forcing_qsw_min              =   0.0000000000000E+00
(PID.TID 0000.0001) %MON forcing_qsw_mean             =   0.0000000000000E+00
(PID.TID 0000.0001) %MON forcing_qsw_sd               =   0.0000000000000E+00
(PID.TID 0000.0001) %MON forcing_qsw_del2             =   0.0000000000000E+00
(PID.TID 0000.0001) %MON forcing_empmr_max            =   8.3243762105667E-05
(PID.TID 0000.0001) %MON forcing_empmr_min            =  -7.4169506092403E-05
(PID.TID 0000.0001) %MON forcing_empmr_mean           =   7.7639069592805E-07
(PID.TID 0000.0001) %MON forcing_empmr_sd             =   2.7794934142646E-05
(PID.TID 0000.0001) %MON forcing_empmr_del2           =   3.6436962197033E-07
(PID.TID 0000.0001) %MON forcing_fu_max               =   2.7488999068737E-01
(PID.TID 0000.0001) %MON forcing_fu_min               =  -1.6014087945223E-01
(PID.TID 0000.0001) %MON forcing_fu_mean              =   1.6117127468124E-02
(PID.TID 0000.0001) %MON forcing_fu_sd                =   9.0153154829689E-02
(PID.TID 0000.0001) %MON forcing_fu_del2              =   6.5365667764057E-04
(PID.TID 0000.0001) %MON forcing_fv_max               =   2.0835298299789E-01
(PID.TID 0000.0001) %MON forcing_fv_min               =  -1.8690676242113E-01
(PID.TID 0000.0001) %MON forcing_fv_mean              =  -6.3653356424171E-03
(PID.TID 0000.0001) %MON forcing_fv_sd                =   4.5157892194461E-02
(PID.TID 0000.0001) %MON forcing_fv_del2              =   4.4595114894327E-04
(PID.TID 0000.0001) %MON trAdv_CFL_u_max              =   9.3464403865933E-03
(PID.TID 0000.0001) %MON trAdv_CFL_v_max              =   2.1785595695383E-03
(PID.TID 0000.0001) %MON trAdv_CFL_w_max              =   0.0000000000000E+00
(PID.TID 0000.0001) %MON advcfl_uvel_max              =   1.6587340950449E-02
(PID.TID 0000.0001) %MON advcfl_vvel_max              =   1.1026618063880E-02
(PID.TID 0000.0001) %MON advcfl_wvel_max              =   9.7266614886407E-02
(PID.TID 0000.0001) %MON advcfl_W_hf_max              =   5.7036182656914E-02
(PID.TID 0000.0001) %MON pe_b_mean                    =   8.4420015262223E-04
(PID.TID 0000.0001) %MON ke_max                       =   1.8487890704001E-03
(PID.TID 0000.0001) %MON ke_mean                      =   4.0736521235116E-05
(PID.TID 0000.0001) %MON ke_vol                       =   1.3226782436723E+18
(PID.TID 0000.0001) %MON vort_r_min                   =  -1.9289642339972E-07
(PID.TID 0000.0001) %MON vort_r_max                   =   2.2069164249680E-07
(PID.TID 0000.0001) %MON vort_a_mean                  =  -2.5274807641996E-05
(PID.TID 0000.0001) %MON vort_a_sd                    =   7.3605571115067E-05
(PID.TID 0000.0001) %MON vort_p_mean                  =  -3.1845656107593E-05
(PID.TID 0000.0001) %MON vort_p_sd                    =   1.3162761013988E-04
(PID.TID 0000.0001) %MON surfExpan_theta_mean         =   3.8250330473633E-05
(PID.TID 0000.0001) %MON surfExpan_salt_mean          =   1.0730106769418E-06
(PID.TID 0000.0001) // =======================================================
(PID.TID 0000.0001) // End MONITOR dynamic field statistics
(PID.TID 0000.0001) // =======================================================
 EXTERNAL_FIELDS_LOAD,         1 : iP,iLd,i0,i1=   12    1   12    1 ; Wght=  0.4666666667  0.5333333333
 EXTERNAL_FIELDS_LOAD: (fu0,1),fu,fv= -4.5368E-02 -3.5633E-02 -4.0176E-02 -6.3320E-02
 EXTERNAL_FIELDS_LOAD: SST,SSS,Q,E-P=  1.1350E-01  3.4387E+01  2.6514E+02  1.0896E-05
DEBUG_STATS_RL:          Uvel (THERMODYNAMICS)  min= -2.02301558062619E-02
DEBUG_STATS_RL:          Uvel (THERMODYNAMICS)  max=  6.23539487103024E-02
DEBUG_STATS_RL:          Uvel (THERMODYNAMICS) mean=  6.20151062082457E-03
DEBUG_STATS_RL:          Uvel (THERMODYNAMICS) S.D.=  3.66739578012374E-03
DEBUG_STATS_RL:          Vvel (THERMODYNAMICS)  min= -1.95829466624316E-02
DEBUG_STATS_RL:          Vvel (THERMODYNAMICS)  max=  5.67551637018580E-02
DEBUG_STATS_RL:          Vvel (THERMODYNAMICS) mean=  5.72828360235447E-03
DEBUG_STATS_RL:          Vvel (THERMODYNAMICS) S.D.=  4.39733804933001E-03
DEBUG_STATS_RL:          Wvel (THERMODYNAMICS)  min= -1.36786613431835E-04
DEBUG_STATS_RL:          Wvel (THERMODYNAMICS)  max=  8.42385667547857E-05
DEBUG_STATS_RL:          Wvel (THERMODYNAMICS) mean= -1.37114161508862E-06
DEBUG_STATS_RL:          Wvel (THERMODYNAMICS) S.D.=  1.30026131745977E-05
DEBUG_STATS_RL:         Theta (THERMODYNAMICS)  min= -1.92015750936861E+00
DEBUG_STATS_RL:         Theta (THERMODYNAMICS)  max=  2.96633660541903E+01
DEBUG_STATS_RL:         Theta (THERMODYNAMICS) mean=  3.20487972267419E+00
DEBUG_STATS_RL:         Theta (THERMODYNAMICS) S.D.=  5.84412993121081E+00
DEBUG_STATS_RL:          Salt (THERMODYNAMICS)  min=  1.00000000000000E-02
DEBUG_STATS_RL:          Salt (THERMODYNAMICS)  max=  3.74692325106226E+01
DEBUG_STATS_RL:          Salt (THERMODYNAMICS) mean=  1.88550274955684E+01
DEBUG_STATS_RL:          Salt (THERMODYNAMICS) S.D.=  1.73004985382739E+01
DEBUG_STATS_RL:         GtNm1 (THERMODYNAMICS)  min= -3.47603968170016E-06
DEBUG_STATS_RL:         GtNm1 (THERMODYNAMICS)  max=  1.70552933855099E-06
DEBUG_STATS_RL:         GtNm1 (THERMODYNAMICS) mean= -6.88780393694726E-09
DEBUG_STATS_RL:         GtNm1 (THERMODYNAMICS) S.D.=  2.50038159545998E-07
DEBUG_STATS_RL:         GsNm1 (THERMODYNAMICS)  min= -3.83249613709136E-07
DEBUG_STATS_RL:         GsNm1 (THERMODYNAMICS)  max=  5.11632677149834E-07
DEBUG_STATS_RL:         GsNm1 (THERMODYNAMICS) mean= -1.66548730948110E-09
DEBUG_STATS_RL:         GsNm1 (THERMODYNAMICS) S.D.=  2.17229826239076E-08
DEBUG_STATS_RL:                EtaN (DYNAMICS)  min= -2.43146823156299E+00
DEBUG_STATS_RL:                EtaN (DYNAMICS)  max=  2.01379806735522E+00
DEBUG_STATS_RL:                EtaN (DYNAMICS) mean= -1.42887064958339E-01
DEBUG_STATS_RL:                EtaN (DYNAMICS) S.D.=  8.95193199577607E-01
DEBUG_STATS_RL:                Uvel (DYNAMICS)  min= -2.02301558062619E-02
DEBUG_STATS_RL:                Uvel (DYNAMICS)  max=  6.23539487103024E-02
DEBUG_STATS_RL:                Uvel (DYNAMICS) mean=  6.20151062082457E-03
DEBUG_STATS_RL:                Uvel (DYNAMICS) S.D.=  3.66739578012374E-03
DEBUG_STATS_RL:                Vvel (DYNAMICS)  min= -1.95829466624316E-02
DEBUG_STATS_RL:                Vvel (DYNAMICS)  max=  5.67551637018580E-02
DEBUG_STATS_RL:                Vvel (DYNAMICS) mean=  5.72828360235447E-03
DEBUG_STATS_RL:                Vvel (DYNAMICS) S.D.=  4.39733804933001E-03
DEBUG_STATS_RL:                Wvel (DYNAMICS)  min= -1.36786613431835E-04
DEBUG_STATS_RL:                Wvel (DYNAMICS)  max=  8.42385667547857E-05
DEBUG_STATS_RL:                Wvel (DYNAMICS) mean= -1.37114161508862E-06
DEBUG_STATS_RL:                Wvel (DYNAMICS) S.D.=  1.30026131745977E-05
DEBUG_STATS_RL:               Theta (DYNAMICS)  min= -1.92015750936861E+00
DEBUG_STATS_RL:               Theta (DYNAMICS)  max=  2.96633660541903E+01
DEBUG_STATS_RL:               Theta (DYNAMICS) mean=  3.20487972267419E+00
DEBUG_STATS_RL:               Theta (DYNAMICS) S.D.=  5.84412993121081E+00
DEBUG_STATS_RL:                Salt (DYNAMICS)  min=  1.00000000000000E-02
DEBUG_STATS_RL:                Salt (DYNAMICS)  max=  3.74692325106226E+01
DEBUG_STATS_RL:                Salt (DYNAMICS) mean=  1.88550274955684E+01
DEBUG_STATS_RL:                Salt (DYNAMICS) S.D.=  1.73004985382739E+01
DEBUG_STATS_RL:                  Gu (DYNAMICS)  min= -1.93195547473142E-02
DEBUG_STATS_RL:                  Gu (DYNAMICS)  max=  5.99889517532754E-02
DEBUG_STATS_RL:                  Gu (DYNAMICS) mean=  5.89236815503963E-03
DEBUG_STATS_RL:                  Gu (DYNAMICS) S.D.=  5.16198331008964E-03
DEBUG_STATS_RL:                  Gv (DYNAMICS)  min= -2.21141553814661E-02
DEBUG_STATS_RL:                  Gv (DYNAMICS)  max=  5.75039170244730E-02
DEBUG_STATS_RL:                  Gv (DYNAMICS) mean=  6.86454179116951E-03
DEBUG_STATS_RL:                  Gv (DYNAMICS) S.D.=  7.37704955092278E-03
DEBUG_STATS_RL:               GuNm1 (DYNAMICS)  min= -1.03289270603522E-05
DEBUG_STATS_RL:               GuNm1 (DYNAMICS)  max=  1.04616058023591E-05
DEBUG_STATS_RL:               GuNm1 (DYNAMICS) mean= -4.75255840361553E-08
DEBUG_STATS_RL:               GuNm1 (DYNAMICS) S.D.=  1.41353419144707E-06
DEBUG_STATS_RL:               GvNm1 (DYNAMICS)  min= -1.23849251469309E-05
DEBUG_STATS_RL:               GvNm1 (DYNAMICS)  max=  1.75929477485000E-05
DEBUG_STATS_RL:               GvNm1 (DYNAMICS) mean=  7.69158859691698E-07
DEBUG_STATS_RL:               GvNm1 (DYNAMICS) S.D.=  2.89374583870463E-06
DEBUG_STATS_RL:               GtNm1 (DYNAMICS)  min= -3.47603968170016E-06
DEBUG_STATS_RL:               GtNm1 (DYNAMICS)  max=  1.70552933855099E-06
DEBUG_STATS_RL:               GtNm1 (DYNAMICS) mean= -6.88780393694726E-09
DEBUG_STATS_RL:               GtNm1 (DYNAMICS) S.D.=  2.50038159545998E-07
DEBUG_STATS_RL:               GsNm1 (DYNAMICS)  min= -3.83249613709136E-07
DEBUG_STATS_RL:               GsNm1 (DYNAMICS)  max=  5.11632677149834E-07
DEBUG_STATS_RL:               GsNm1 (DYNAMICS) mean= -1.66548730948110E-09
DEBUG_STATS_RL:               GsNm1 (DYNAMICS) S.D.=  2.17229826239076E-08
DEBUG_STATS_RL:    cg2d_b (SOLVE_FOR_PRESSURE)  min= -4.13476100089225E+04
DEBUG_STATS_RL:    cg2d_b (SOLVE_FOR_PRESSURE)  max=  2.17855430031811E+04
DEBUG_STATS_RL:    cg2d_b (SOLVE_FOR_PRESSURE) mean=  1.25016343078995E-01
DEBUG_STATS_RL:    cg2d_b (SOLVE_FOR_PRESSURE) S.D.=  5.34529256182622E+03
 cg2d: Sum(rhs),rhsMax =   6.99950575534940E-03  2.71582173054019E+00
(PID.TID 0000.0001)  cg2d: iter=     1 ; resid.=  1.96003266684871E+00
(PID.TID 0000.0001)  cg2d: iter=     2 ; resid.=  1.35346175128327E+00
(PID.TID 0000.0001)  cg2d: iter=     3 ; resid.=  1.03984668911341E+00
(PID.TID 0000.0001)  cg2d: iter=     4 ; resid.=  8.72860250550066E-01
(PID.TID 0000.0001)  cg2d: iter=     5 ; resid.=  7.38818844217935E-01
(PID.TID 0000.0001)  cg2d: iter=     6 ; resid.=  6.36171687621127E-01
(PID.TID 0000.0001)  cg2d: iter=     7 ; resid.=  5.73397297116414E-01
(PID.TID 0000.0001)  cg2d: iter=     8 ; resid.=  5.03224390060420E-01
(PID.TID 0000.0001)  cg2d: iter=     9 ; resid.=  4.30290014870090E-01
(PID.TID 0000.0001)  cg2d: iter=    10 ; resid.=  3.32596628997135E-01
(PID.TID 0000.0001)  cg2d: iter=    11 ; resid.=  2.95364580263042E-01
(PID.TID 0000.0001)  cg2d: iter=    12 ; resid.=  2.70465366537982E-01
(PID.TID 0000.0001)  cg2d: iter=    13 ; resid.=  2.38863228857327E-01
(PID.TID 0000.0001)  cg2d: iter=    14 ; resid.=  2.00181354266644E-01
(PID.TID 0000.0001)  cg2d: iter=    15 ; resid.=  1.77200907740676E-01
(PID.TID 0000.0001)  cg2d: iter=    16 ; resid.=  1.60618272049542E-01
(PID.TID 0000.0001)  cg2d: iter=    17 ; resid.=  1.39813910560548E-01
(PID.TID 0000.0001)  cg2d: iter=    18 ; resid.=  1.07628461211956E-01
(PID.TID 0000.0001)  cg2d: iter=    19 ; resid.=  8.66790296739550E-02
(PID.TID 0000.0001)  cg2d: iter=    20 ; resid.=  6.93639839808752E-02
(PID.TID 0000.0001)  cg2d: iter=    21 ; resid.=  5.48872680508596E-02
(PID.TID 0000.0001)  cg2d: iter=    22 ; resid.=  4.67669116863995E-02
(PID.TID 0000.0001)  cg2d: iter=    23 ; resid.=  3.97193385115231E-02
(PID.TID 0000.0001)  cg2d: iter=    24 ; resid.=  3.67573467359652E-02
(PID.TID 0000.0001)  cg2d: iter=    25 ; resid.=  2.88106210074758E-02
(PID.TID 0000.0001)  cg2d: iter=    26 ; resid.=  2.26823430553906E-02
(PID.TID 0000.0001)  cg2d: iter=    27 ; resid.=  1.86448610570544E-02
(PID.TID 0000.0001)  cg2d: iter=    28 ; resid.=  1.46641958209697E-02
(PID.TID 0000.0001)  cg2d: iter=    29 ; resid.=  1.18552911225807E-02
(PID.TID 0000.0001)  cg2d: iter=    30 ; resid.=  1.11189795280721E-02
(PID.TID 0000.0001)  cg2d: iter=    31 ; resid.=  1.00136643636959E-02
(PID.TID 0000.0001)  cg2d: iter=    32 ; resid.=  8.38046907232476E-03
(PID.TID 0000.0001)  cg2d: iter=    33 ; resid.=  6.18993604280646E-03
(PID.TID 0000.0001)  cg2d: iter=    34 ; resid.=  4.93985093356030E-03
(PID.TID 0000.0001)  cg2d: iter=    35 ; resid.=  3.90575979927607E-03
(PID.TID 0000.0001)  cg2d: iter=    36 ; resid.=  3.03223094358783E-03
(PID.TID 0000.0001)  cg2d: iter=    37 ; resid.=  2.43961749160204E-03
(PID.TID 0000.0001)  cg2d: iter=    38 ; resid.=  1.97442790771975E-03
(PID.TID 0000.0001)  cg2d: iter=    39 ; resid.=  1.69851799992226E-03
(PID.TID 0000.0001)  cg2d: iter=    40 ; resid.=  1.39298600562668E-03
(PID.TID 0000.0001)  cg2d: iter=    41 ; resid.=  1.14522137936416E-03
(PID.TID 0000.0001)  cg2d: iter=    42 ; resid.=  9.81008048143817E-04
(PID.TID 0000.0001)  cg2d: iter=    43 ; resid.=  8.52312115676082E-04
(PID.TID 0000.0001)  cg2d: iter=    44 ; resid.=  7.03493411575264E-04
(PID.TID 0000.0001)  cg2d: iter=    45 ; resid.=  5.84883990163134E-04
(PID.TID 0000.0001)  cg2d: iter=    46 ; resid.=  5.00972405438292E-04
(PID.TID 0000.0001)  cg2d: iter=    47 ; resid.=  4.38783194617688E-04
(PID.TID 0000.0001)  cg2d: iter=    48 ; resid.=  3.63975569611268E-04
(PID.TID 0000.0001)  cg2d: iter=    49 ; resid.=  3.05211532689549E-04
(PID.TID 0000.0001)  cg2d: iter=    50 ; resid.=  2.47917031471286E-04
(PID.TID 0000.0001)  cg2d: iter=    51 ; resid.=  2.00205487267172E-04
(PID.TID 0000.0001)  cg2d: iter=    52 ; resid.=  1.77535039953721E-04
(PID.TID 0000.0001)  cg2d: iter=    53 ; resid.=  1.45702025226380E-04
(PID.TID 0000.0001)  cg2d: iter=    54 ; resid.=  1.22779883253232E-04
(PID.TID 0000.0001)  cg2d: iter=    55 ; resid.=  1.09076798912167E-04
(PID.TID 0000.0001)  cg2d: iter=    56 ; resid.=  9.34016829933658E-05
(PID.TID 0000.0001)  cg2d: iter=    57 ; resid.=  6.89335977950013E-05
(PID.TID 0000.0001)  cg2d: iter=    58 ; resid.=  5.01897449180419E-05
(PID.TID 0000.0001)  cg2d: iter=    59 ; resid.=  3.59045355526237E-05
(PID.TID 0000.0001)  cg2d: iter=    60 ; resid.=  2.67491073095259E-05
(PID.TID 0000.0001)  cg2d: iter=    61 ; resid.=  2.20426602896178E-05
(PID.TID 0000.0001)  cg2d: iter=    62 ; resid.=  1.82514702224449E-05
(PID.TID 0000.0001)  cg2d: iter=    63 ; resid.=  1.35452921538203E-05
(PID.TID 0000.0001)  cg2d: iter=    64 ; resid.=  1.07630206731933E-05
(PID.TID 0000.0001)  cg2d: iter=    65 ; resid.=  8.52928236143888E-06
(PID.TID 0000.0001)  cg2d: iter=    66 ; resid.=  7.00897454234099E-06
(PID.TID 0000.0001)  cg2d: iter=    67 ; resid.=  5.96257979346736E-06
(PID.TID 0000.0001)  cg2d: iter=    68 ; resid.=  4.78940983358157E-06
(PID.TID 0000.0001)  cg2d: iter=    69 ; resid.=  4.16455788288784E-06
(PID.TID 0000.0001)  cg2d: iter=    70 ; resid.=  3.78939860548039E-06
(PID.TID 0000.0001)  cg2d: iter=    71 ; resid.=  3.15899364772140E-06
(PID.TID 0000.0001)  cg2d: iter=    72 ; resid.=  2.72626238296733E-06
(PID.TID 0000.0001)  cg2d: iter=    73 ; resid.=  2.27255158406895E-06
(PID.TID 0000.0001)  cg2d: iter=    74 ; resid.=  1.75899118797331E-06
(PID.TID 0000.0001)  cg2d: iter=    75 ; resid.=  1.31030429430140E-06
(PID.TID 0000.0001)  cg2d: iter=    76 ; resid.=  9.73516288830025E-07
(PID.TID 0000.0001)  cg2d: iter=    77 ; resid.=  8.59400703953880E-07
(PID.TID 0000.0001)  cg2d: iter=    78 ; resid.=  7.52849661327084E-07
(PID.TID 0000.0001)  cg2d: iter=    79 ; resid.=  6.06625838009419E-07
(PID.TID 0000.0001)  cg2d: iter=    80 ; resid.=  4.86880753060238E-07
(PID.TID 0000.0001)  cg2d: iter=    81 ; resid.=  4.18392521882513E-07
(PID.TID 0000.0001)  cg2d: iter=    82 ; resid.=  3.69222279854396E-07
(PID.TID 0000.0001)  cg2d: iter=    83 ; resid.=  3.34056827944878E-07
(PID.TID 0000.0001)  cg2d: iter=    84 ; resid.=  2.82184772290422E-07
(PID.TID 0000.0001)  cg2d: iter=    85 ; resid.=  2.20876948260992E-07
(PID.TID 0000.0001)  cg2d: iter=    86 ; resid.=  1.70642110308094E-07
(PID.TID 0000.0001)  cg2d: iter=    87 ; resid.=  1.19378501410683E-07
(PID.TID 0000.0001)  cg2d: iter=    88 ; resid.=  8.94076812121077E-08
(PID.TID 0000.0001)  cg2d: iter=    89 ; resid.=  7.50230889337709E-08
(PID.TID 0000.0001)  cg2d: iter=    90 ; resid.=  6.17675845620625E-08
(PID.TID 0000.0001)  cg2d: iter=    91 ; resid.=  4.71808062108787E-08
(PID.TID 0000.0001)  cg2d: iter=    92 ; resid.=  3.58807843579063E-08
(PID.TID 0000.0001)  cg2d: iter=    93 ; resid.=  2.71974056910761E-08
(PID.TID 0000.0001)  cg2d: iter=    94 ; resid.=  2.23315118795147E-08
(PID.TID 0000.0001)  cg2d: iter=    95 ; resid.=  1.83642499454457E-08
(PID.TID 0000.0001)  cg2d: iter=    96 ; resid.=  1.47695709674191E-08
(PID.TID 0000.0001)  cg2d: iter=    97 ; resid.=  1.10819638274801E-08
(PID.TID 0000.0001)  cg2d: iter=    98 ; resid.=  8.50921995384879E-09
(PID.TID 0000.0001)  cg2d: iter=    99 ; resid.=  6.45005734214072E-09
(PID.TID 0000.0001)  cg2d: iter=   100 ; resid.=  5.39426663977594E-09
(PID.TID 0000.0001)  cg2d: iter=   101 ; resid.=  4.23874218918516E-09
(PID.TID 0000.0001)  cg2d: iter=   102 ; resid.=  3.45854875486282E-09
(PID.TID 0000.0001)  cg2d: iter=   103 ; resid.=  2.80557458080023E-09
(PID.TID 0000.0001)  cg2d: iter=   104 ; resid.=  2.28727381766629E-09
(PID.TID 0000.0001)  cg2d: iter=   105 ; resid.=  1.84964123090735E-09
(PID.TID 0000.0001)  cg2d: iter=   106 ; resid.=  1.50576423832179E-09
(PID.TID 0000.0001)  cg2d: iter=   107 ; resid.=  1.24639501596184E-09
(PID.TID 0000.0001)  cg2d: iter=   108 ; resid.=  1.10223215821231E-09
(PID.TID 0000.0001)  cg2d: iter=   109 ; resid.=  9.53102375922436E-10
(PID.TID 0000.0001)  cg2d: iter=   110 ; resid.=  7.95855230144653E-10
(PID.TID 0000.0001)  cg2d: iter=   111 ; resid.=  6.72024891047508E-10
(PID.TID 0000.0001)  cg2d: iter=   112 ; resid.=  5.14301255019628E-10
(PID.TID 0000.0001)  cg2d: iter=   113 ; resid.=  3.76726178708651E-10
(PID.TID 0000.0001)  cg2d: iter=   114 ; resid.=  2.62961222261050E-10
(PID.TID 0000.0001)  cg2d: iter=   115 ; resid.=  1.85776397910772E-10
(PID.TID 0000.0001)  cg2d: iter=   116 ; resid.=  1.39757007175825E-10
(PID.TID 0000.0001)  cg2d: iter=   117 ; resid.=  9.77982597070123E-11
(PID.TID 0000.0001)  cg2d: iter=   118 ; resid.=  7.32162613834205E-11
(PID.TID 0000.0001)  cg2d: iter=   119 ; resid.=  5.70106819218590E-11
(PID.TID 0000.0001)  cg2d: iter=   120 ; resid.=  4.45830054804504E-11
(PID.TID 0000.0001)  cg2d: iter=   121 ; resid.=  3.64013100044032E-11
(PID.TID 0000.0001)  cg2d: iter=   122 ; resid.=  2.93974300160398E-11
(PID.TID 0000.0001)  cg2d: iter=   123 ; resid.=  2.06279813934981E-11
(PID.TID 0000.0001)  cg2d: iter=   124 ; resid.=  1.60699001534999E-11
(PID.TID 0000.0001)  cg2d: iter=   125 ; resid.=  1.25990733528309E-11
(PID.TID 0000.0001)  cg2d: iter=   126 ; resid.=  9.15419447613710E-12
(PID.TID 0000.0001)  cg2d: iter=   127 ; resid.=  6.05326269541486E-12
(PID.TID 0000.0001)  cg2d: iter=   128 ; resid.=  4.31085522418664E-12
(PID.TID 0000.0001)  cg2d: iter=   129 ; resid.=  3.26918534518139E-12
(PID.TID 0000.0001)  cg2d: iter=   130 ; resid.=  2.48245924669657E-12
(PID.TID 0000.0001)  cg2d: iter=   131 ; resid.=  1.91859508947766E-12
(PID.TID 0000.0001)  cg2d: iter=   132 ; resid.=  1.34164613198399E-12
(PID.TID 0000.0001)  cg2d: iter=   133 ; resid.=  9.60324573303624E-13
(PID.TID 0000.0001)  cg2d: iter=   134 ; resid.=  7.06234811876050E-13
(PID.TID 0000.0001)  cg2d: iter=   135 ; resid.=  5.49987998889365E-13
(PID.TID 0000.0001)  cg2d: iter=   136 ; resid.=  4.19451730936188E-13
(PID.TID 0000.0001)  cg2d: iter=   137 ; resid.=  3.30469806742436E-13
(PID.TID 0000.0001)  cg2d: iter=   138 ; resid.=  2.66636044767550E-13
(PID.TID 0000.0001)  cg2d: iter=   139 ; resid.=  2.10039511551235E-13
(PID.TID 0000.0001)  cg2d: iter=   140 ; resid.=  1.54984694643913E-13
(PID.TID 0000.0001)  cg2d: iter=   141 ; resid.=  1.23106923572045E-13
(PID.TID 0000.0001)  cg2d: iter=   142 ; resid.=  8.89261147853256E-14
DEBUG_STATS_RL:    cg2d_x (SOLVE_FOR_PRESSURE)  min= -2.81220866371822E+01
DEBUG_STATS_RL:    cg2d_x (SOLVE_FOR_PRESSURE)  max=  1.98485217194729E+01
DEBUG_STATS_RL:    cg2d_x (SOLVE_FOR_PRESSURE) mean= -1.90580246139105E+00
DEBUG_STATS_RL:    cg2d_x (SOLVE_FOR_PRESSURE) S.D.=  1.07899238690681E+01
(PID.TID 0000.0001)      cg2d_init_res =   3.80486526690700E+00
(PID.TID 0000.0001)      cg2d_iters(min,last) =      -1     142
(PID.TID 0000.0001)      cg2d_last_res =   8.89261147853256E-14
(PID.TID 0000.0001) // =======================================================
(PID.TID 0000.0001) // Begin MONITOR dynamic field statistics
(PID.TID 0000.0001) // =======================================================
(PID.TID 0000.0001) %MON time_tsnumber                =                     2
(PID.TID 0000.0001) %MON time_secondsf                =   1.7280000000000E+05
(PID.TID 0000.0001) %MON dynstat_eta_max              =   2.0232947726272E+00
(PID.TID 0000.0001) %MON dynstat_eta_min              =  -2.8666754981839E+00
(PID.TID 0000.0001) %MON dynstat_eta_mean             =  -1.3043905248791E-04
(PID.TID 0000.0001) %MON dynstat_eta_sd               =   9.8309078977962E-01
(PID.TID 0000.0001) %MON dynstat_eta_del2             =   2.9175693419464E-03
(PID.TID 0000.0001) %MON dynstat_uvel_max             =   1.0275464775686E-01
(PID.TID 0000.0001) %MON dynstat_uvel_min             =  -2.6887549677212E-02
(PID.TID 0000.0001) %MON dynstat_uvel_mean            =   2.8414314110723E-03
(PID.TID 0000.0001) %MON dynstat_uvel_sd              =   4.3005240090831E-03
(PID.TID 0000.0001) %MON dynstat_uvel_del2            =   3.8319210412692E-05
(PID.TID 0000.0001) %MON dynstat_vvel_max             =   9.0763099838921E-02
(PID.TID 0000.0001) %MON dynstat_vvel_min             =  -4.5339912292181E-02
(PID.TID 0000.0001) %MON dynstat_vvel_mean            =   2.2168909797326E-03
(PID.TID 0000.0001) %MON dynstat_vvel_sd              =   5.2139465163927E-03
(PID.TID 0000.0001) %MON dynstat_vvel_del2            =   4.7463652627005E-05
(PID.TID 0000.0001) %MON dynstat_wvel_max             =   1.2894947123623E-04
(PID.TID 0000.0001) %MON dynstat_wvel_min             =  -1.5098058853789E-04
(PID.TID 0000.0001) %MON dynstat_wvel_mean            =  -3.3833108098974E-22
(PID.TID 0000.0001) %MON dynstat_wvel_sd              =   1.3194186475547E-05
(PID.TID 0000.0001) %MON dynstat_wvel_del2            =   1.8207214929685E-07
(PID.TID 0000.0001) %MON dynstat_theta_max            =   2.9663366054190E+01
(PID.TID 0000.0001) %MON dynstat_theta_min            =  -1.9201575093686E+00
(PID.TID 0000.0001) %MON dynstat_theta_mean           =   3.6284314605666E+00
(PID.TID 0000.0001) %MON dynstat_theta_sd             =   4.4146192128354E+00
(PID.TID 0000.0001) %MON dynstat_theta_del2           =   5.5984583329511E-03
(PID.TID 0000.0001) %MON dynstat_salt_max             =   3.7469232510623E+01
(PID.TID 0000.0001) %MON dynstat_salt_min             =   2.9766558412466E+01
(PID.TID 0000.0001) %MON dynstat_salt_mean            =   3.4727967691798E+01
(PID.TID 0000.0001) %MON dynstat_salt_sd              =   2.9599941831509E-01
(PID.TID 0000.0001) %MON dynstat_salt_del2            =   1.0192530385307E-03
(PID.TID 0000.0001) %MON dynstat_sst_max              =   2.9663366054190E+01
(PID.TID 0000.0001) %MON dynstat_sst_min              =  -1.9063155234999E+00
(PID.TID 0000.0001) %MON dynstat_sst_mean             =   1.8500015010977E+01
(PID.TID 0000.0001) %MON dynstat_sst_sd               =   9.1522253981433E+00
(PID.TID 0000.0001) %MON dynstat_sst_del2             =   2.6910116373996E-02
(PID.TID 0000.0001) %MON dynstat_sss_max              =   3.7469232510623E+01
(PID.TID 0000.0001) %MON dynstat_sss_min              =   2.9766558412466E+01
(PID.TID 0000.0001) %MON dynstat_sss_mean             =   3.4859801170138E+01
(PID.TID 0000.0001) %MON dynstat_sss_sd               =   9.6300845018169E-01
(PID.TID 0000.0001) %MON dynstat_sss_del2             =   8.0132127305282E-03
(PID.TID 0000.0001) %MON forcing_qnet_max             =   4.2693899536133E+02
(PID.TID 0000.0001) %MON forcing_qnet_min             =  -1.8655982259115E+02
(PID.TID 0000.0001) %MON forcing_qnet_mean            =  -1.6687693382567E+01
(PID.TID 0000.0001) %MON forcing_qnet_sd              =   1.1263946608433E+02
(PID.TID 0000.0001) %MON forcing_qnet_del2            =   9.9183674388333E-01
(PID.TID 0000.0001) %MON forcing_qsw_max              =   0.0000000000000E+00
(PID.TID 0000.0001) %MON forcing_qsw_min              =   0.0000000000000E+00
(PID.TID 0000.0001) %MON forcing_qsw_mean             =   0.0000000000000E+00
(PID.TID 0000.0001) %MON forcing_qsw_sd               =   0.0000000000000E+00
(PID.TID 0000.0001) %MON forcing_qsw_del2             =   0.0000000000000E+00
(PID.TID 0000.0001) %MON forcing_empmr_max            =   8.2987928351486E-05
(PID.TID 0000.0001) %MON forcing_empmr_min            =  -7.3906322484163E-05
(PID.TID 0000.0001) %MON forcing_empmr_mean           =   7.8616045367356E-07
(PID.TID 0000.0001) %MON forcing_empmr_sd             =   2.7832317986922E-05
(PID.TID 0000.0001) %MON forcing_empmr_del2           =   3.6378785899555E-07
(PID.TID 0000.0001) %MON forcing_fu_max               =   2.7403144240379E-01
(PID.TID 0000.0001) %MON forcing_fu_min               =  -1.5949268937111E-01
(PID.TID 0000.0001) %MON forcing_fu_mean              =   1.6109434647086E-02
(PID.TID 0000.0001) %MON forcing_fu_sd                =   9.0138031840955E-02
(PID.TID 0000.0001) %MON forcing_fu_del2              =   6.5488191036968E-04
(PID.TID 0000.0001) %MON forcing_fv_max               =   2.0882657567660E-01
(PID.TID 0000.0001) %MON forcing_fv_min               =  -1.8632210493088E-01
(PID.TID 0000.0001) %MON forcing_fv_mean              =  -6.2915731155564E-03
(PID.TID 0000.0001) %MON forcing_fv_sd                =   4.5261152700224E-02
(PID.TID 0000.0001) %MON forcing_fv_del2              =   4.4588571962377E-04
(PID.TID 0000.0001) %MON trAdv_CFL_u_max              =   1.6590709958031E-02
(PID.TID 0000.0001) %MON trAdv_CFL_v_max              =   1.1090007700457E-02
(PID.TID 0000.0001) %MON trAdv_CFL_w_max              =   5.7036182656914E-02
(PID.TID 0000.0001) %MON advcfl_uvel_max              =   2.1068208847042E-02
(PID.TID 0000.0001) %MON advcfl_vvel_max              =   1.7633814633589E-02
(PID.TID 0000.0001) %MON advcfl_wvel_max              =   4.5676228056787E-02
(PID.TID 0000.0001) %MON advcfl_W_hf_max              =   5.5463991211813E-02
(PID.TID 0000.0001) %MON pe_b_mean                    =   1.2367116803006E-03
(PID.TID 0000.0001) %MON ke_max                       =   4.7380218320461E-03
(PID.TID 0000.0001) %MON ke_mean                      =   2.6481380332850E-05
(PID.TID 0000.0001) %MON ke_vol                       =   1.3226782436723E+18
(PID.TID 0000.0001) %MON vort_r_min                   =  -2.5861607018776E-07
(PID.TID 0000.0001) %MON vort_r_max                   =   2.8789221381277E-07
(PID.TID 0000.0001) %MON vort_a_mean                  =  -2.5274807488370E-05
(PID.TID 0000.0001) %MON vort_a_sd                    =   7.3604909753562E-05
(PID.TID 0000.0001) %MON vort_p_mean                  =  -3.1845655914028E-05
(PID.TID 0000.0001) %MON vort_p_sd                    =   1.3162580081636E-04
(PID.TID 0000.0001) %MON surfExpan_theta_mean         =   2.0004767391077E-05
(PID.TID 0000.0001) %MON surfExpan_salt_mean          =   1.0123384274759E-06
(PID.TID 0000.0001) // =======================================================
(PID.TID 0000.0001) // End MONITOR dynamic field statistics
(PID.TID 0000.0001) // =======================================================
 EXTERNAL_FIELDS_LOAD,         2 : iP,iLd,i0,i1=   12    1   12    1 ; Wght=  0.4333333333  0.5666666667
 EXTERNAL_FIELDS_LOAD: (fu0,1),fu,fv= -4.5368E-02 -3.5633E-02 -3.9851E-02 -6.2886E-02
 EXTERNAL_FIELDS_LOAD: SST,SSS,Q,E-P=  1.7385E-01  3.4410E+01  2.6519E+02  1.0949E-05
DEBUG_STATS_RL:          Uvel (THERMODYNAMICS)  min= -2.68875496772125E-02
DEBUG_STATS_RL:          Uvel (THERMODYNAMICS)  max=  1.02754647756856E-01
DEBUG_STATS_RL:          Uvel (THERMODYNAMICS) mean=  3.91356806741755E-03
DEBUG_STATS_RL:          Uvel (THERMODYNAMICS) S.D.=  5.89941207949667E-03
DEBUG_STATS_RL:          Vvel (THERMODYNAMICS)  min= -4.53399122921811E-02
DEBUG_STATS_RL:          Vvel (THERMODYNAMICS)  max=  9.07630998389206E-02
DEBUG_STATS_RL:          Vvel (THERMODYNAMICS) mean=  1.46464283422198E-03
DEBUG_STATS_RL:          Vvel (THERMODYNAMICS) S.D.=  7.19598088100862E-03
DEBUG_STATS_RL:          Wvel (THERMODYNAMICS)  min= -1.50980588537888E-04
DEBUG_STATS_RL:          Wvel (THERMODYNAMICS)  max=  1.28949471236231E-04
DEBUG_STATS_RL:          Wvel (THERMODYNAMICS) mean= -7.43881086393286E-07
DEBUG_STATS_RL:          Wvel (THERMODYNAMICS) S.D.=  1.27980949388837E-05
DEBUG_STATS_RL:         Theta (THERMODYNAMICS)  min= -1.90736912999987E+00
DEBUG_STATS_RL:         Theta (THERMODYNAMICS)  max=  2.97277044090784E+01
DEBUG_STATS_RL:         Theta (THERMODYNAMICS) mean=  3.20564741486183E+00
DEBUG_STATS_RL:         Theta (THERMODYNAMICS) S.D.=  5.84373122750195E+00
DEBUG_STATS_RL:          Salt (THERMODYNAMICS)  min=  1.00000000000000E-02
DEBUG_STATS_RL:          Salt (THERMODYNAMICS)  max=  3.74615652032931E+01
DEBUG_STATS_RL:          Salt (THERMODYNAMICS) mean=  1.88550227964340E+01
DEBUG_STATS_RL:          Salt (THERMODYNAMICS) S.D.=  1.73004963837112E+01
DEBUG_STATS_RL:         GtNm1 (THERMODYNAMICS)  min= -3.27127648704600E-06
DEBUG_STATS_RL:         GtNm1 (THERMODYNAMICS)  max=  2.38530033836360E-06
DEBUG_STATS_RL:         GtNm1 (THERMODYNAMICS) mean=  8.22568821786399E-09
DEBUG_STATS_RL:         GtNm1 (THERMODYNAMICS) S.D.=  2.07893190636729E-07
DEBUG_STATS_RL:         GsNm1 (THERMODYNAMICS)  min= -3.92014644634687E-07
DEBUG_STATS_RL:         GsNm1 (THERMODYNAMICS)  max=  1.88579297863007E-07
DEBUG_STATS_RL:         GsNm1 (THERMODYNAMICS) mean= -7.24643489340004E-10
DEBUG_STATS_RL:         GsNm1 (THERMODYNAMICS) S.D.=  1.28618386671584E-08
DEBUG_STATS_RL:                EtaN (DYNAMICS)  min= -2.86667549818390E+00
DEBUG_STATS_RL:                EtaN (DYNAMICS)  max=  2.02329477262722E+00
DEBUG_STATS_RL:                EtaN (DYNAMICS) mean= -1.94271402792159E-01
DEBUG_STATS_RL:                EtaN (DYNAMICS) S.D.=  1.09989030265729E+00
DEBUG_STATS_RL:                Uvel (DYNAMICS)  min= -2.68875496772125E-02
DEBUG_STATS_RL:                Uvel (DYNAMICS)  max=  1.02754647756856E-01
DEBUG_STATS_RL:                Uvel (DYNAMICS) mean=  3.91356806741755E-03
DEBUG_STATS_RL:                Uvel (DYNAMICS) S.D.=  5.89941207949667E-03
DEBUG_STATS_RL:                Vvel (DYNAMICS)  min= -4.53399122921811E-02
DEBUG_STATS_RL:                Vvel (DYNAMICS)  max=  9.07630998389206E-02
DEBUG_STATS_RL:                Vvel (DYNAMICS) mean=  1.46464283422198E-03
DEBUG_STATS_RL:                Vvel (DYNAMICS) S.D.=  7.19598088100862E-03
DEBUG_STATS_RL:                Wvel (DYNAMICS)  min= -1.50980588537888E-04
DEBUG_STATS_RL:                Wvel (DYNAMICS)  max=  1.28949471236231E-04
DEBUG_STATS_RL:                Wvel (DYNAMICS) mean= -7.43881086393286E-07
DEBUG_STATS_RL:                Wvel (DYNAMICS) S.D.=  1.27980949388837E-05
DEBUG_STATS_RL:               Theta (DYNAMICS)  min= -1.90736912999987E+00
DEBUG_STATS_RL:               Theta (DYNAMICS)  max=  2.97277044090784E+01
DEBUG_STATS_RL:               Theta (DYNAMICS) mean=  3.20564741486183E+00
DEBUG_STATS_RL:               Theta (DYNAMICS) S.D.=  5.84373122750195E+00
DEBUG_STATS_RL:                Salt (DYNAMICS)  min=  1.00000000000000E-02
DEBUG_STATS_RL:                Salt (DYNAMICS)  max=  3.74615652032931E+01
DEBUG_STATS_RL:                Salt (DYNAMICS) mean=  1.88550227964340E+01
DEBUG_STATS_RL:                Salt (DYNAMICS) S.D.=  1.73004963837112E+01
DEBUG_STATS_RL:                  Gu (DYNAMICS)  min= -2.79911132273455E-02
DEBUG_STATS_RL:                  Gu (DYNAMICS)  max=  9.89416092439393E-02
DEBUG_STATS_RL:                  Gu (DYNAMICS) mean=  3.86066664963813E-03
DEBUG_STATS_RL:                  Gu (DYNAMICS) S.D.=  7.71054072155569E-03
DEBUG_STATS_RL:                  Gv (DYNAMICS)  min= -3.94436313401787E-02
DEBUG_STATS_RL:                  Gv (DYNAMICS)  max=  9.20963341828303E-02
DEBUG_STATS_RL:                  Gv (DYNAMICS) mean=  2.64974584081062E-03
DEBUG_STATS_RL:                  Gv (DYNAMICS) S.D.=  9.11799169245306E-03
DEBUG_STATS_RL:               GuNm1 (DYNAMICS)  min= -9.88424884929218E-06
DEBUG_STATS_RL:               GuNm1 (DYNAMICS)  max=  9.81223355874073E-06
DEBUG_STATS_RL:               GuNm1 (DYNAMICS) mean= -5.18910635469026E-08
DEBUG_STATS_RL:               GuNm1 (DYNAMICS) S.D.=  1.38796090634225E-06
DEBUG_STATS_RL:               GvNm1 (DYNAMICS)  min= -1.21053150226121E-05
DEBUG_STATS_RL:               GvNm1 (DYNAMICS)  max=  1.74373117783593E-05
DEBUG_STATS_RL:               GvNm1 (DYNAMICS) mean=  7.67130324597359E-07
DEBUG_STATS_RL:               GvNm1 (DYNAMICS) S.D.=  2.87160440356788E-06
DEBUG_STATS_RL:               GtNm1 (DYNAMICS)  min= -3.27127648704600E-06
DEBUG_STATS_RL:               GtNm1 (DYNAMICS)  max=  2.38530033836360E-06
DEBUG_STATS_RL:               GtNm1 (DYNAMICS) mean=  8.22568821786399E-09
DEBUG_STATS_RL:               GtNm1 (DYNAMICS) S.D.=  2.07893190636729E-07
DEBUG_STATS_RL:               GsNm1 (DYNAMICS)  min= -3.92014644634687E-07
DEBUG_STATS_RL:               GsNm1 (DYNAMICS)  max=  1.88579297863007E-07
DEBUG_STATS_RL:               GsNm1 (DYNAMICS) mean= -7.24643489340004E-10
DEBUG_STATS_RL:               GsNm1 (DYNAMICS) S.D.=  1.28618386671584E-08
DEBUG_STATS_RL:    cg2d_b (SOLVE_FOR_PRESSURE)  min= -3.62255098436413E+04
DEBUG_STATS_RL:    cg2d_b (SOLVE_FOR_PRESSURE)  max=  1.95105948693119E+04
DEBUG_STATS_RL:    cg2d_b (SOLVE_FOR_PRESSURE) mean=  1.88697000446208E-01
DEBUG_STATS_RL:    cg2d_b (SOLVE_FOR_PRESSURE) S.D.=  4.97043708383462E+03
 cg2d: Sum(rhs),rhsMax =   1.20587276181656E-02  2.37938847764184E+00
(PID.TID 0000.0001)  cg2d: iter=     1 ; resid.=  1.39224636317272E+00
(PID.TID 0000.0001)  cg2d: iter=     2 ; resid.=  1.31505817017376E+00
(PID.TID 0000.0001)  cg2d: iter=     3 ; resid.=  1.02409471618678E+00
(PID.TID 0000.0001)  cg2d: iter=     4 ; resid.=  8.47100034556126E-01
(PID.TID 0000.0001)  cg2d: iter=     5 ; resid.=  6.67334507513856E-01
(PID.TID 0000.0001)  cg2d: iter=     6 ; resid.=  5.18490562718083E-01
(PID.TID 0000.0001)  cg2d: iter=     7 ; resid.=  3.90943312300090E-01
(PID.TID 0000.0001)  cg2d: iter=     8 ; resid.=  2.98455071190571E-01
(PID.TID 0000.0001)  cg2d: iter=     9 ; resid.=  2.27866993301377E-01
(PID.TID 0000.0001)  cg2d: iter=    10 ; resid.=  1.84931158351440E-01
(PID.TID 0000.0001)  cg2d: iter=    11 ; resid.=  1.55278610049964E-01
(PID.TID 0000.0001)  cg2d: iter=    12 ; resid.=  1.27642010960165E-01
(PID.TID 0000.0001)  cg2d: iter=    13 ; resid.=  1.07386819415647E-01
(PID.TID 0000.0001)  cg2d: iter=    14 ; resid.=  9.53579261619701E-02
(PID.TID 0000.0001)  cg2d: iter=    15 ; resid.=  8.52920843824544E-02
(PID.TID 0000.0001)  cg2d: iter=    16 ; resid.=  7.56867736196385E-02
(PID.TID 0000.0001)  cg2d: iter=    17 ; resid.=  6.42018173368091E-02
(PID.TID 0000.0001)  cg2d: iter=    18 ; resid.=  5.63108960843804E-02
(PID.TID 0000.0001)  cg2d: iter=    19 ; resid.=  4.91484188962256E-02
(PID.TID 0000.0001)  cg2d: iter=    20 ; resid.=  4.34558263102334E-02
(PID.TID 0000.0001)  cg2d: iter=    21 ; resid.=  3.92709287890607E-02
(PID.TID 0000.0001)  cg2d: iter=    22 ; resid.=  3.49787724932973E-02
(PID.TID 0000.0001)  cg2d: iter=    23 ; resid.=  2.76438830095931E-02
(PID.TID 0000.0001)  cg2d: iter=    24 ; resid.=  2.14028533217227E-02
(PID.TID 0000.0001)  cg2d: iter=    25 ; resid.=  1.48605989263151E-02
(PID.TID 0000.0001)  cg2d: iter=    26 ; resid.=  1.17927965748712E-02
(PID.TID 0000.0001)  cg2d: iter=    27 ; resid.=  9.44851952275614E-03
(PID.TID 0000.0001)  cg2d: iter=    28 ; resid.=  7.93352487269269E-03
(PID.TID 0000.0001)  cg2d: iter=    29 ; resid.=  7.07850556293687E-03
(PID.TID 0000.0001)  cg2d: iter=    30 ; resid.=  6.82350271088624E-03
(PID.TID 0000.0001)  cg2d: iter=    31 ; resid.=  5.16535895342780E-03
(PID.TID 0000.0001)  cg2d: iter=    32 ; resid.=  4.07293494553303E-03
(PID.TID 0000.0001)  cg2d: iter=    33 ; resid.=  3.24562853184832E-03
(PID.TID 0000.0001)  cg2d: iter=    34 ; resid.=  2.94493598508621E-03
(PID.TID 0000.0001)  cg2d: iter=    35 ; resid.=  2.32680082477164E-03
(PID.TID 0000.0001)  cg2d: iter=    36 ; resid.=  1.86679488180468E-03
(PID.TID 0000.0001)  cg2d: iter=    37 ; resid.=  1.56727395776161E-03
(PID.TID 0000.0001)  cg2d: iter=    38 ; resid.=  1.32902323811542E-03
(PID.TID 0000.0001)  cg2d: iter=    39 ; resid.=  1.08557178323704E-03
(PID.TID 0000.0001)  cg2d: iter=    40 ; resid.=  9.49525654778885E-04
(PID.TID 0000.0001)  cg2d: iter=    41 ; resid.=  7.94905808229721E-04
(PID.TID 0000.0001)  cg2d: iter=    42 ; resid.=  6.86685073329994E-04
(PID.TID 0000.0001)  cg2d: iter=    43 ; resid.=  5.32052413411853E-04
(PID.TID 0000.0001)  cg2d: iter=    44 ; resid.=  4.23703659626263E-04
(PID.TID 0000.0001)  cg2d: iter=    45 ; resid.=  3.67502011152251E-04
(PID.TID 0000.0001)  cg2d: iter=    46 ; resid.=  3.21599618302221E-04
(PID.TID 0000.0001)  cg2d: iter=    47 ; resid.=  2.63857369130202E-04
(PID.TID 0000.0001)  cg2d: iter=    48 ; resid.=  2.17246397820832E-04
(PID.TID 0000.0001)  cg2d: iter=    49 ; resid.=  1.79973138301151E-04
(PID.TID 0000.0001)  cg2d: iter=    50 ; resid.=  1.44778217309093E-04
(PID.TID 0000.0001)  cg2d: iter=    51 ; resid.=  1.21171600442391E-04
(PID.TID 0000.0001)  cg2d: iter=    52 ; resid.=  1.04275091011588E-04
(PID.TID 0000.0001)  cg2d: iter=    53 ; resid.=  9.44498524610447E-05
(PID.TID 0000.0001)  cg2d: iter=    54 ; resid.=  8.49548598424087E-05
(PID.TID 0000.0001)  cg2d: iter=    55 ; resid.=  7.34495422241655E-05
(PID.TID 0000.0001)  cg2d: iter=    56 ; resid.=  5.25702847395237E-05
(PID.TID 0000.0001)  cg2d: iter=    57 ; resid.=  3.83905027607276E-05
(PID.TID 0000.0001)  cg2d: iter=    58 ; resid.=  2.94375367968196E-05
(PID.TID 0000.0001)  cg2d: iter=    59 ; resid.=  2.49423823763955E-05
(PID.TID 0000.0001)  cg2d: iter=    60 ; resid.=  2.17925748858505E-05
(PID.TID 0000.0001)  cg2d: iter=    61 ; resid.=  1.84267709213161E-05
(PID.TID 0000.0001)  cg2d: iter=    62 ; resid.=  1.32948621913240E-05
(PID.TID 0000.0001)  cg2d: iter=    63 ; resid.=  9.73464671410164E-06
(PID.TID 0000.0001)  cg2d: iter=    64 ; resid.=  7.93728860726206E-06
(PID.TID 0000.0001)  cg2d: iter=    65 ; resid.=  6.56837651554258E-06
(PID.TID 0000.0001)  cg2d: iter=    66 ; resid.=  5.79585766143003E-06
(PID.TID 0000.0001)  cg2d: iter=    67 ; resid.=  4.86393397806984E-06
(PID.TID 0000.0001)  cg2d: iter=    68 ; resid.=  3.95806203558614E-06
(PID.TID 0000.0001)  cg2d: iter=    69 ; resid.=  3.16044926034529E-06
(PID.TID 0000.0001)  cg2d: iter=    70 ; resid.=  2.32485638611153E-06
(PID.TID 0000.0001)  cg2d: iter=    71 ; resid.=  1.73650139252743E-06
(PID.TID 0000.0001)  cg2d: iter=    72 ; resid.=  1.41866588090543E-06
(PID.TID 0000.0001)  cg2d: iter=    73 ; resid.=  1.13078879934582E-06
(PID.TID 0000.0001)  cg2d: iter=    74 ; resid.=  8.83699466234507E-07
(PID.TID 0000.0001)  cg2d: iter=    75 ; resid.=  7.19071013215444E-07
(PID.TID 0000.0001)  cg2d: iter=    76 ; resid.=  5.81320524393091E-07
(PID.TID 0000.0001)  cg2d: iter=    77 ; resid.=  5.06088729425453E-07
(PID.TID 0000.0001)  cg2d: iter=    78 ; resid.=  4.29227757241767E-07
(PID.TID 0000.0001)  cg2d: iter=    79 ; resid.=  3.67354412282553E-07
(PID.TID 0000.0001)  cg2d: iter=    80 ; resid.=  2.99600491008894E-07
(PID.TID 0000.0001)  cg2d: iter=    81 ; resid.=  2.42411315310089E-07
(PID.TID 0000.0001)  cg2d: iter=    82 ; resid.=  1.83008819077727E-07
(PID.TID 0000.0001)  cg2d: iter=    83 ; resid.=  1.47223162812072E-07
(PID.TID 0000.0001)  cg2d: iter=    84 ; resid.=  1.13421787133727E-07
(PID.TID 0000.0001)  cg2d: iter=    85 ; resid.=  9.06584191879471E-08
(PID.TID 0000.0001)  cg2d: iter=    86 ; resid.=  7.27675351504150E-08
(PID.TID 0000.0001)  cg2d: iter=    87 ; resid.=  6.21578476366793E-08
(PID.TID 0000.0001)  cg2d: iter=    88 ; resid.=  5.84709658634588E-08
(PID.TID 0000.0001)  cg2d: iter=    89 ; resid.=  5.42824705957253E-08
(PID.TID 0000.0001)  cg2d: iter=    90 ; resid.=  4.60924902987603E-08
(PID.TID 0000.0001)  cg2d: iter=    91 ; resid.=  3.87633034315274E-08
(PID.TID 0000.0001)  cg2d: iter=    92 ; resid.=  3.07974113811355E-08
(PID.TID 0000.0001)  cg2d: iter=    93 ; resid.=  2.35325589414018E-08
(PID.TID 0000.0001)  cg2d: iter=    94 ; resid.=  1.85144612886425E-08
(PID.TID 0000.0001)  cg2d: iter=    95 ; resid.=  1.38006728856862E-08
(PID.TID 0000.0001)  cg2d: iter=    96 ; resid.=  1.01062795580056E-08
(PID.TID 0000.0001)  cg2d: iter=    97 ; resid.=  7.77774450914165E-09
(PID.TID 0000.0001)  cg2d: iter=    98 ; resid.=  6.14653984285530E-09
(PID.TID 0000.0001)  cg2d: iter=    99 ; resid.=  4.91065538013918E-09
(PID.TID 0000.0001)  cg2d: iter=   100 ; resid.=  4.06946361283964E-09
(PID.TID 0000.0001)  cg2d: iter=   101 ; resid.=  3.03517707321575E-09
(PID.TID 0000.0001)  cg2d: iter=   102 ; resid.=  2.42786204992268E-09
(PID.TID 0000.0001)  cg2d: iter=   103 ; resid.=  2.00592410050013E-09
(PID.TID 0000.0001)  cg2d: iter=   104 ; resid.=  1.64056770899872E-09
(PID.TID 0000.0001)  cg2d: iter=   105 ; resid.=  1.29899401560410E-09
(PID.TID 0000.0001)  cg2d: iter=   106 ; resid.=  1.08977190744703E-09
(PID.TID 0000.0001)  cg2d: iter=   107 ; resid.=  8.63696450949067E-10
(PID.TID 0000.0001)  cg2d: iter=   108 ; resid.=  7.25110999811916E-10
(PID.TID 0000.0001)  cg2d: iter=   109 ; resid.=  5.91388261630966E-10
(PID.TID 0000.0001)  cg2d: iter=   110 ; resid.=  4.79480936184739E-10
(PID.TID 0000.0001)  cg2d: iter=   111 ; resid.=  3.88794421682379E-10
(PID.TID 0000.0001)  cg2d: iter=   112 ; resid.=  3.11748996077789E-10
(PID.TID 0000.0001)  cg2d: iter=   113 ; resid.=  2.46328394320841E-10
(PID.TID 0000.0001)  cg2d: iter=   114 ; resid.=  2.14501014981615E-10
(PID.TID 0000.0001)  cg2d: iter=   115 ; resid.=  1.74613832272472E-10
(PID.TID 0000.0001)  cg2d: iter=   116 ; resid.=  1.37795550721462E-10
(PID.TID 0000.0001)  cg2d: iter=   117 ; resid.=  1.12162061295669E-10
(PID.TID 0000.0001)  cg2d: iter=   118 ; resid.=  9.40713746590947E-11
(PID.TID 0000.0001)  cg2d: iter=   119 ; resid.=  7.31196974308202E-11
(PID.TID 0000.0001)  cg2d: iter=   120 ; resid.=  5.94765378347218E-11
(PID.TID 0000.0001)  cg2d: iter=   121 ; resid.=  4.68701845489791E-11
(PID.TID 0000.0001)  cg2d: iter=   122 ; resid.=  3.44876463640376E-11
(PID.TID 0000.0001)  cg2d: iter=   123 ; resid.=  2.34329747782507E-11
(PID.TID 0000.0001)  cg2d: iter=   124 ; resid.=  1.69511429829904E-11
(PID.TID 0000.0001)  cg2d: iter=   125 ; resid.=  1.20847045041891E-11
(PID.TID 0000.0001)  cg2d: iter=   126 ; resid.=  9.47889342809414E-12
(PID.TID 0000.0001)  cg2d: iter=   127 ; resid.=  6.70940229347682E-12
(PID.TID 0000.0001)  cg2d: iter=   128 ; resid.=  4.80465663628426E-12
(PID.TID 0000.0001)  cg2d: iter=   129 ; resid.=  3.30032926380477E-12
(PID.TID 0000.0001)  cg2d: iter=   130 ; resid.=  2.28948519300252E-12
(PID.TID 0000.0001)  cg2d: iter=   131 ; resid.=  1.70494684718668E-12
(PID.TID 0000.0001)  cg2d: iter=   132 ; resid.=  1.20328899292750E-12
(PID.TID 0000.0001)  cg2d: iter=   133 ; resid.=  9.25930759724688E-13
(PID.TID 0000.0001)  cg2d: iter=   134 ; resid.=  7.00404251049821E-13
(PID.TID 0000.0001)  cg2d: iter=   135 ; resid.=  5.03578261495948E-13
(PID.TID 0000.0001)  cg2d: iter=   136 ; resid.=  3.61103953755553E-13
(PID.TID 0000.0001)  cg2d: iter=   137 ; resid.=  2.52384623116479E-13
(PID.TID 0000.0001)  cg2d: iter=   138 ; resid.=  1.79244228263212E-13
(PID.TID 0000.0001)  cg2d: iter=   139 ; resid.=  1.43906004561702E-13
(PID.TID 0000.0001)  cg2d: iter=   140 ; resid.=  1.10471317387588E-13
(PID.TID 0000.0001)  cg2d: iter=   141 ; resid.=  9.24025117126695E-14
DEBUG_STATS_RL:    cg2d_x (SOLVE_FOR_PRESSURE)  min= -2.32082509817476E+01
DEBUG_STATS_RL:    cg2d_x (SOLVE_FOR_PRESSURE)  max=  1.81053736748857E+01
DEBUG_STATS_RL:    cg2d_x (SOLVE_FOR_PRESSURE) mean= -1.76112429951988E+00
DEBUG_STATS_RL:    cg2d_x (SOLVE_FOR_PRESSURE) S.D.=  9.55487346193519E+00
(PID.TID 0000.0001)      cg2d_init_res =   1.21736299398000E+00
(PID.TID 0000.0001)      cg2d_iters(min,last) =      -1     141
(PID.TID 0000.0001)      cg2d_last_res =   9.24025117126695E-14
(PID.TID 0000.0001) // =======================================================
(PID.TID 0000.0001) // Begin MONITOR dynamic field statistics
(PID.TID 0000.0001) // =======================================================
(PID.TID 0000.0001) %MON time_tsnumber                =                     3
(PID.TID 0000.0001) %MON time_secondsf                =   2.5920000000000E+05
(PID.TID 0000.0001) %MON dynstat_eta_max              =   1.8456038404572E+00
(PID.TID 0000.0001) %MON dynstat_eta_min              =  -2.3657748197500E+00
(PID.TID 0000.0001) %MON dynstat_eta_mean             =  -1.9688192231129E-04
(PID.TID 0000.0001) %MON dynstat_eta_sd               =   8.5936902007789E-01
(PID.TID 0000.0001) %MON dynstat_eta_del2             =   2.6947944324851E-03
(PID.TID 0000.0001) %MON dynstat_uvel_max             =   1.1809246692346E-01
(PID.TID 0000.0001) %MON dynstat_uvel_min             =  -4.3620853526052E-02
(PID.TID 0000.0001) %MON dynstat_uvel_mean            =   1.4766378286770E-03
(PID.TID 0000.0001) %MON dynstat_uvel_sd              =   5.6394810290253E-03
(PID.TID 0000.0001) %MON dynstat_uvel_del2            =   4.9948918076664E-05
(PID.TID 0000.0001) %MON dynstat_vvel_max             =   1.0192418551265E-01
(PID.TID 0000.0001) %MON dynstat_vvel_min             =  -6.3511132472320E-02
(PID.TID 0000.0001) %MON dynstat_vvel_mean            =  -4.1712198511208E-04
(PID.TID 0000.0001) %MON dynstat_vvel_sd              =   6.7265159370019E-03
(PID.TID 0000.0001) %MON dynstat_vvel_del2            =   6.4416813517406E-05
(PID.TID 0000.0001) %MON dynstat_wvel_max             =   1.7449667835978E-04
(PID.TID 0000.0001) %MON dynstat_wvel_min             =  -1.5266663949755E-04
(PID.TID 0000.0001) %MON dynstat_wvel_mean            =  -1.8053652001425E-22
(PID.TID 0000.0001) %MON dynstat_wvel_sd              =   1.6912293799570E-05
(PID.TID 0000.0001) %MON dynstat_wvel_del2            =   2.3618883609497E-07
(PID.TID 0000.0001) %MON dynstat_theta_max            =   2.9727704409078E+01
(PID.TID 0000.0001) %MON dynstat_theta_min            =  -1.9073691299999E+00
(PID.TID 0000.0001) %MON dynstat_theta_mean           =   3.6283182294639E+00
(PID.TID 0000.0001) %MON dynstat_theta_sd             =   4.4136634508823E+00
(PID.TID 0000.0001) %MON dynstat_theta_del2           =   5.5500339299644E-03
(PID.TID 0000.0001) %MON dynstat_salt_max             =   3.7461565203293E+01
(PID.TID 0000.0001) %MON dynstat_salt_min             =   2.9766465780285E+01
(PID.TID 0000.0001) %MON dynstat_salt_mean            =   3.4727946564255E+01
(PID.TID 0000.0001) %MON dynstat_salt_sd              =   2.9601699298261E-01
(PID.TID 0000.0001) %MON dynstat_salt_del2            =   1.0181110166017E-03
(PID.TID 0000.0001) %MON dynstat_sst_max              =   2.9727704409078E+01
(PID.TID 0000.0001) %MON dynstat_sst_min              =  -1.9073691299999E+00
(PID.TID 0000.0001) %MON dynstat_sst_mean             =   1.8512462365822E+01
(PID.TID 0000.0001) %MON dynstat_sst_sd               =   9.1412684046085E+00
(PID.TID 0000.0001) %MON dynstat_sst_del2             =   2.6739009030834E-02
(PID.TID 0000.0001) %MON dynstat_sss_max              =   3.7461565203293E+01
(PID.TID 0000.0001) %MON dynstat_sss_min              =   2.9766465780285E+01
(PID.TID 0000.0001) %MON dynstat_sss_mean             =   3.4860323948748E+01
(PID.TID 0000.0001) %MON dynstat_sss_sd               =   9.6383020129137E-01
(PID.TID 0000.0001) %MON dynstat_sss_del2             =   8.0030131563191E-03
(PID.TID 0000.0001) %MON forcing_qnet_max             =   4.2798718261719E+02
(PID.TID 0000.0001) %MON forcing_qnet_min             =  -1.8609266001383E+02
(PID.TID 0000.0001) %MON forcing_qnet_mean            =  -1.6675181426744E+01
(PID.TID 0000.0001) %MON forcing_qnet_sd              =   1.1242481361476E+02
(PID.TID 0000.0001) %MON forcing_qnet_del2            =   9.9305199082959E-01
(PID.TID 0000.0001) %MON forcing_qsw_max              =   0.0000000000000E+00
(PID.TID 0000.0001) %MON forcing_qsw_min              =   0.0000000000000E+00
(PID.TID 0000.0001) %MON forcing_qsw_mean             =   0.0000000000000E+00
(PID.TID 0000.0001) %MON forcing_qsw_sd               =   0.0000000000000E+00
(PID.TID 0000.0001) %MON forcing_qsw_del2             =   0.0000000000000E+00
(PID.TID 0000.0001) %MON forcing_empmr_max            =   8.2732094597304E-05
(PID.TID 0000.0001) %MON forcing_empmr_min            =  -7.3643138875923E-05
(PID.TID 0000.0001) %MON forcing_empmr_mean           =   7.9593021141906E-07
(PID.TID 0000.0001) %MON forcing_empmr_sd             =   2.7874041013016E-05
(PID.TID 0000.0001) %MON forcing_empmr_del2           =   3.6331922792719E-07
(PID.TID 0000.0001) %MON forcing_fu_max               =   2.7317289412022E-01
(PID.TID 0000.0001) %MON forcing_fu_min               =  -1.6030610948801E-01
(PID.TID 0000.0001) %MON forcing_fu_mean              =   1.6101741826049E-02
(PID.TID 0000.0001) %MON forcing_fu_sd                =   9.0133772222350E-02
(PID.TID 0000.0001) %MON forcing_fu_del2              =   6.5664222090357E-04
(PID.TID 0000.0001) %MON forcing_fv_max               =   2.0930016835531E-01
(PID.TID 0000.0001) %MON forcing_fv_min               =  -1.8573744744062E-01
(PID.TID 0000.0001) %MON forcing_fv_mean              =  -6.2178105886955E-03
(PID.TID 0000.0001) %MON forcing_fv_sd                =   4.5379778517573E-02
(PID.TID 0000.0001) %MON forcing_fv_del2              =   4.4636987924417E-04
(PID.TID 0000.0001) %MON trAdv_CFL_u_max              =   2.1072487950941E-02
(PID.TID 0000.0001) %MON trAdv_CFL_v_max              =   1.7735187610744E-02
(PID.TID 0000.0001) %MON trAdv_CFL_w_max              =   3.8824793848269E-02
(PID.TID 0000.0001) %MON advcfl_uvel_max              =   2.3338805589610E-02
(PID.TID 0000.0001) %MON advcfl_vvel_max              =   1.9802234577702E-02
(PID.TID 0000.0001) %MON advcfl_wvel_max              =   5.1050561709530E-02
(PID.TID 0000.0001) %MON advcfl_W_hf_max              =   5.6368328554273E-02
(PID.TID 0000.0001) %MON pe_b_mean                    =   9.4501915157918E-04
(PID.TID 0000.0001) %MON ke_max                       =   6.0901159499820E-03
(PID.TID 0000.0001) %MON ke_mean                      =   3.5830571435531E-05
(PID.TID 0000.0001) %MON ke_vol                       =   1.3226782436723E+18
(PID.TID 0000.0001) %MON vort_r_min                   =  -3.0539263891961E-07
(PID.TID 0000.0001) %MON vort_r_max                   =   3.7801530831723E-07
(PID.TID 0000.0001) %MON vort_a_mean                  =  -2.5274807616946E-05
(PID.TID 0000.0001) %MON vort_a_sd                    =   7.3604588406102E-05
(PID.TID 0000.0001) %MON vort_p_mean                  =  -3.1845656076031E-05
(PID.TID 0000.0001) %MON vort_p_sd                    =   1.3162482979946E-04
(PID.TID 0000.0001) %MON surfExpan_theta_mean         =   7.1326977862959E-07
(PID.TID 0000.0001) %MON surfExpan_salt_mean          =   2.0699022735658E-07
(PID.TID 0000.0001) // =======================================================
(PID.TID 0000.0001) // End MONITOR dynamic field statistics
(PID.TID 0000.0001) // =======================================================
 EXTERNAL_FIELDS_LOAD,         3 : iP,iLd,i0,i1=   12    1   12    1 ; Wght=  0.4000000000  0.6000000000
 EXTERNAL_FIELDS_LOAD: (fu0,1),fu,fv= -4.5368E-02 -3.5633E-02 -3.9527E-02 -6.2453E-02
 EXTERNAL_FIELDS_LOAD: SST,SSS,Q,E-P=  2.3421E-01  3.4434E+01  2.6523E+02  1.1002E-05
DEBUG_STATS_RL:          Uvel (THERMODYNAMICS)  min= -4.36208535260523E-02
DEBUG_STATS_RL:          Uvel (THERMODYNAMICS)  max=  1.18092466923460E-01
DEBUG_STATS_RL:          Uvel (THERMODYNAMICS) mean=  3.06881395118072E-03
DEBUG_STATS_RL:          Uvel (THERMODYNAMICS) S.D.=  8.10738545165057E-03
DEBUG_STATS_RL:          Vvel (THERMODYNAMICS)  min= -6.35111324723203E-02
DEBUG_STATS_RL:          Vvel (THERMODYNAMICS)  max=  1.01924185512652E-01
DEBUG_STATS_RL:          Vvel (THERMODYNAMICS) mean= -1.54060259233018E-03
DEBUG_STATS_RL:          Vvel (THERMODYNAMICS) S.D.=  9.70961918484417E-03
DEBUG_STATS_RL:          Wvel (THERMODYNAMICS)  min= -1.52666639497549E-04
DEBUG_STATS_RL:          Wvel (THERMODYNAMICS)  max=  1.74496678359785E-04
DEBUG_STATS_RL:          Wvel (THERMODYNAMICS) mean= -3.06039115490522E-07
DEBUG_STATS_RL:          Wvel (THERMODYNAMICS) S.D.=  1.61959615378699E-05
DEBUG_STATS_RL:         Theta (THERMODYNAMICS)  min= -1.90762791755349E+00
DEBUG_STATS_RL:         Theta (THERMODYNAMICS)  max=  2.97684170415617E+01
DEBUG_STATS_RL:         Theta (THERMODYNAMICS) mean=  3.20700419288272E+00
DEBUG_STATS_RL:         Theta (THERMODYNAMICS) S.D.=  5.84509098755498E+00
DEBUG_STATS_RL:          Salt (THERMODYNAMICS)  min=  1.00000000000000E-02
DEBUG_STATS_RL:          Salt (THERMODYNAMICS)  max=  3.74552636800078E+01
DEBUG_STATS_RL:          Salt (THERMODYNAMICS) mean=  1.88550660653812E+01
DEBUG_STATS_RL:          Salt (THERMODYNAMICS) S.D.=  1.73005386257022E+01
DEBUG_STATS_RL:         GtNm1 (THERMODYNAMICS)  min= -3.07336287879787E-06
DEBUG_STATS_RL:         GtNm1 (THERMODYNAMICS)  max=  2.47815028703728E-06
DEBUG_STATS_RL:         GtNm1 (THERMODYNAMICS) mean=  2.18815543282581E-08
DEBUG_STATS_RL:         GtNm1 (THERMODYNAMICS) S.D.=  2.22001754427980E-07
DEBUG_STATS_RL:         GsNm1 (THERMODYNAMICS)  min= -3.84915547172287E-07
DEBUG_STATS_RL:         GsNm1 (THERMODYNAMICS)  max=  6.62012713012799E-07
DEBUG_STATS_RL:         GsNm1 (THERMODYNAMICS) mean=  2.59999382433906E-10
DEBUG_STATS_RL:         GsNm1 (THERMODYNAMICS) S.D.=  1.57307591343941E-08
DEBUG_STATS_RL:                EtaN (DYNAMICS)  min= -2.36577481975004E+00
DEBUG_STATS_RL:                EtaN (DYNAMICS)  max=  1.84560384045725E+00
DEBUG_STATS_RL:                EtaN (DYNAMICS) mean= -1.79523374059110E-01
DEBUG_STATS_RL:                EtaN (DYNAMICS) S.D.=  9.73993217322652E-01
DEBUG_STATS_RL:                Uvel (DYNAMICS)  min= -4.36208535260523E-02
DEBUG_STATS_RL:                Uvel (DYNAMICS)  max=  1.18092466923460E-01
DEBUG_STATS_RL:                Uvel (DYNAMICS) mean=  3.06881395118072E-03
DEBUG_STATS_RL:                Uvel (DYNAMICS) S.D.=  8.10738545165057E-03
DEBUG_STATS_RL:                Vvel (DYNAMICS)  min= -6.35111324723203E-02
DEBUG_STATS_RL:                Vvel (DYNAMICS)  max=  1.01924185512652E-01
DEBUG_STATS_RL:                Vvel (DYNAMICS) mean= -1.54060259233018E-03
DEBUG_STATS_RL:                Vvel (DYNAMICS) S.D.=  9.70961918484417E-03
DEBUG_STATS_RL:                Wvel (DYNAMICS)  min= -1.52666639497549E-04
DEBUG_STATS_RL:                Wvel (DYNAMICS)  max=  1.74496678359785E-04
DEBUG_STATS_RL:                Wvel (DYNAMICS) mean= -3.06039115490522E-07
DEBUG_STATS_RL:                Wvel (DYNAMICS) S.D.=  1.61959615378699E-05
DEBUG_STATS_RL:               Theta (DYNAMICS)  min= -1.90762791755349E+00
DEBUG_STATS_RL:               Theta (DYNAMICS)  max=  2.97684170415617E+01
DEBUG_STATS_RL:               Theta (DYNAMICS) mean=  3.20700419288272E+00
DEBUG_STATS_RL:               Theta (DYNAMICS) S.D.=  5.84509098755498E+00
DEBUG_STATS_RL:                Salt (DYNAMICS)  min=  1.00000000000000E-02
DEBUG_STATS_RL:                Salt (DYNAMICS)  max=  3.74552636800078E+01
DEBUG_STATS_RL:                Salt (DYNAMICS) mean=  1.88550660653812E+01
DEBUG_STATS_RL:                Salt (DYNAMICS) S.D.=  1.73005386257022E+01
DEBUG_STATS_RL:                  Gu (DYNAMICS)  min= -4.34977653581318E-02
DEBUG_STATS_RL:                  Gu (DYNAMICS)  max=  1.14010375286733E-01
DEBUG_STATS_RL:                  Gu (DYNAMICS) mean=  3.11011912842886E-03
DEBUG_STATS_RL:                  Gu (DYNAMICS) S.D.=  1.01016150873724E-02
DEBUG_STATS_RL:                  Gv (DYNAMICS)  min= -5.55310806824212E-02
DEBUG_STATS_RL:                  Gv (DYNAMICS)  max=  1.03500690520264E-01
DEBUG_STATS_RL:                  Gv (DYNAMICS) mean= -2.52108776933356E-04
DEBUG_STATS_RL:                  Gv (DYNAMICS) S.D.=  1.08963688088036E-02
DEBUG_STATS_RL:               GuNm1 (DYNAMICS)  min= -9.29685359763130E-06
DEBUG_STATS_RL:               GuNm1 (DYNAMICS)  max=  9.03929696044024E-06
DEBUG_STATS_RL:               GuNm1 (DYNAMICS) mean= -4.50952451087631E-08
DEBUG_STATS_RL:               GuNm1 (DYNAMICS) S.D.=  1.35890634757380E-06
DEBUG_STATS_RL:               GvNm1 (DYNAMICS)  min= -1.17994116726091E-05
DEBUG_STATS_RL:               GvNm1 (DYNAMICS)  max=  1.71991137028675E-05
DEBUG_STATS_RL:               GvNm1 (DYNAMICS) mean=  7.75351719863127E-07
DEBUG_STATS_RL:               GvNm1 (DYNAMICS) S.D.=  2.84763023075239E-06
DEBUG_STATS_RL:               GtNm1 (DYNAMICS)  min= -3.07336287879787E-06
DEBUG_STATS_RL:               GtNm1 (DYNAMICS)  max=  2.47815028703728E-06
DEBUG_STATS_RL:               GtNm1 (DYNAMICS) mean=  2.18815543282581E-08
DEBUG_STATS_RL:               GtNm1 (DYNAMICS) S.D.=  2.22001754427980E-07
DEBUG_STATS_RL:               GsNm1 (DYNAMICS)  min= -3.84915547172287E-07
DEBUG_STATS_RL:               GsNm1 (DYNAMICS)  max=  6.62012713012799E-07
DEBUG_STATS_RL:               GsNm1 (DYNAMICS) mean=  2.59999382433906E-10
DEBUG_STATS_RL:               GsNm1 (DYNAMICS) S.D.=  1.57307591343941E-08
DEBUG_STATS_RL:    cg2d_b (SOLVE_FOR_PRESSURE)  min= -3.34518007848884E+04
DEBUG_STATS_RL:    cg2d_b (SOLVE_FOR_PRESSURE)  max=  1.82857276854094E+04
DEBUG_STATS_RL:    cg2d_b (SOLVE_FOR_PRESSURE) mean=  2.53159315034596E-01
DEBUG_STATS_RL:    cg2d_b (SOLVE_FOR_PRESSURE) S.D.=  4.71631423780953E+03
 cg2d: Sum(rhs),rhsMax =   1.75196491834785E-02  2.19720384026300E+00
(PID.TID 0000.0001)  cg2d: iter=     1 ; resid.=  1.09506644844871E+00
(PID.TID 0000.0001)  cg2d: iter=     2 ; resid.=  1.46739167830904E+00
(PID.TID 0000.0001)  cg2d: iter=     3 ; resid.=  1.14395360391218E+00
(PID.TID 0000.0001)  cg2d: iter=     4 ; resid.=  9.38854656714055E-01
(PID.TID 0000.0001)  cg2d: iter=     5 ; resid.=  7.53547554465417E-01
(PID.TID 0000.0001)  cg2d: iter=     6 ; resid.=  5.52067638074022E-01
(PID.TID 0000.0001)  cg2d: iter=     7 ; resid.=  3.93523092102599E-01
(PID.TID 0000.0001)  cg2d: iter=     8 ; resid.=  3.56512229796361E-01
(PID.TID 0000.0001)  cg2d: iter=     9 ; resid.=  3.47378994046894E-01
(PID.TID 0000.0001)  cg2d: iter=    10 ; resid.=  2.95076530177905E-01
(PID.TID 0000.0001)  cg2d: iter=    11 ; resid.=  2.57082805253709E-01
(PID.TID 0000.0001)  cg2d: iter=    12 ; resid.=  2.17392408471746E-01
(PID.TID 0000.0001)  cg2d: iter=    13 ; resid.=  1.96584102812605E-01
(PID.TID 0000.0001)  cg2d: iter=    14 ; resid.=  1.80086302474652E-01
(PID.TID 0000.0001)  cg2d: iter=    15 ; resid.=  1.60026595286862E-01
(PID.TID 0000.0001)  cg2d: iter=    16 ; resid.=  1.33784026114644E-01
(PID.TID 0000.0001)  cg2d: iter=    17 ; resid.=  1.19294304396945E-01
(PID.TID 0000.0001)  cg2d: iter=    18 ; resid.=  1.00827946939860E-01
(PID.TID 0000.0001)  cg2d: iter=    19 ; resid.=  7.95009103768559E-02
(PID.TID 0000.0001)  cg2d: iter=    20 ; resid.=  6.03440979528892E-02
(PID.TID 0000.0001)  cg2d: iter=    21 ; resid.=  5.16591959248330E-02
(PID.TID 0000.0001)  cg2d: iter=    22 ; resid.=  4.40588633594681E-02
(PID.TID 0000.0001)  cg2d: iter=    23 ; resid.=  3.37110716251849E-02
(PID.TID 0000.0001)  cg2d: iter=    24 ; resid.=  2.75857159654691E-02
(PID.TID 0000.0001)  cg2d: iter=    25 ; resid.=  2.13552803509194E-02
(PID.TID 0000.0001)  cg2d: iter=    26 ; resid.=  1.87657405144567E-02
(PID.TID 0000.0001)  cg2d: iter=    27 ; resid.=  1.70668015796300E-02
(PID.TID 0000.0001)  cg2d: iter=    28 ; resid.=  1.37437682047473E-02
(PID.TID 0000.0001)  cg2d: iter=    29 ; resid.=  1.06591145896886E-02
(PID.TID 0000.0001)  cg2d: iter=    30 ; resid.=  8.60849323043190E-03
(PID.TID 0000.0001)  cg2d: iter=    31 ; resid.=  6.79798310742984E-03
(PID.TID 0000.0001)  cg2d: iter=    32 ; resid.=  5.53516974152008E-03
(PID.TID 0000.0001)  cg2d: iter=    33 ; resid.=  4.42661636526827E-03
(PID.TID 0000.0001)  cg2d: iter=    34 ; resid.=  3.80176662860027E-03
(PID.TID 0000.0001)  cg2d: iter=    35 ; resid.=  3.16898119148060E-03
(PID.TID 0000.0001)  cg2d: iter=    36 ; resid.=  2.49099678128020E-03
(PID.TID 0000.0001)  cg2d: iter=    37 ; resid.=  2.00504048384002E-03
(PID.TID 0000.0001)  cg2d: iter=    38 ; resid.=  1.48771812773658E-03
(PID.TID 0000.0001)  cg2d: iter=    39 ; resid.=  1.20536719196073E-03
(PID.TID 0000.0001)  cg2d: iter=    40 ; resid.=  1.04296592192992E-03
(PID.TID 0000.0001)  cg2d: iter=    41 ; resid.=  9.10797765489180E-04
(PID.TID 0000.0001)  cg2d: iter=    42 ; resid.=  7.49640014447493E-04
(PID.TID 0000.0001)  cg2d: iter=    43 ; resid.=  5.05071964384487E-04
(PID.TID 0000.0001)  cg2d: iter=    44 ; resid.=  3.70818319399523E-04
(PID.TID 0000.0001)  cg2d: iter=    45 ; resid.=  3.27215898451724E-04
(PID.TID 0000.0001)  cg2d: iter=    46 ; resid.=  2.78846894348021E-04
(PID.TID 0000.0001)  cg2d: iter=    47 ; resid.=  2.15909421249277E-04
(PID.TID 0000.0001)  cg2d: iter=    48 ; resid.=  1.74157899472876E-04
(PID.TID 0000.0001)  cg2d: iter=    49 ; resid.=  1.43066386572673E-04
(PID.TID 0000.0001)  cg2d: iter=    50 ; resid.=  1.28958849922282E-04
(PID.TID 0000.0001)  cg2d: iter=    51 ; resid.=  1.12430446795031E-04
(PID.TID 0000.0001)  cg2d: iter=    52 ; resid.=  9.88228161301133E-05
(PID.TID 0000.0001)  cg2d: iter=    53 ; resid.=  8.77545493933669E-05
(PID.TID 0000.0001)  cg2d: iter=    54 ; resid.=  7.10507872152412E-05
(PID.TID 0000.0001)  cg2d: iter=    55 ; resid.=  5.83367570418589E-05
(PID.TID 0000.0001)  cg2d: iter=    56 ; resid.=  4.61955263158832E-05
(PID.TID 0000.0001)  cg2d: iter=    57 ; resid.=  4.15907983973528E-05
(PID.TID 0000.0001)  cg2d: iter=    58 ; resid.=  3.37613945326081E-05
(PID.TID 0000.0001)  cg2d: iter=    59 ; resid.=  2.72538994460623E-05
(PID.TID 0000.0001)  cg2d: iter=    60 ; resid.=  2.31209888988979E-05
(PID.TID 0000.0001)  cg2d: iter=    61 ; resid.=  1.82977735664753E-05
(PID.TID 0000.0001)  cg2d: iter=    62 ; resid.=  1.43577264459818E-05
(PID.TID 0000.0001)  cg2d: iter=    63 ; resid.=  1.05813975675905E-05
(PID.TID 0000.0001)  cg2d: iter=    64 ; resid.=  8.52728905977349E-06
(PID.TID 0000.0001)  cg2d: iter=    65 ; resid.=  7.83670328185788E-06
(PID.TID 0000.0001)  cg2d: iter=    66 ; resid.=  6.71917110013789E-06
(PID.TID 0000.0001)  cg2d: iter=    67 ; resid.=  5.71306149192858E-06
(PID.TID 0000.0001)  cg2d: iter=    68 ; resid.=  4.50935514208649E-06
(PID.TID 0000.0001)  cg2d: iter=    69 ; resid.=  3.30835063458074E-06
(PID.TID 0000.0001)  cg2d: iter=    70 ; resid.=  2.53271887697445E-06
(PID.TID 0000.0001)  cg2d: iter=    71 ; resid.=  1.89947892946873E-06
(PID.TID 0000.0001)  cg2d: iter=    72 ; resid.=  1.57878936884155E-06
(PID.TID 0000.0001)  cg2d: iter=    73 ; resid.=  1.43465675920544E-06
(PID.TID 0000.0001)  cg2d: iter=    74 ; resid.=  1.18157271861742E-06
(PID.TID 0000.0001)  cg2d: iter=    75 ; resid.=  9.54342779223724E-07
(PID.TID 0000.0001)  cg2d: iter=    76 ; resid.=  7.49131894318521E-07
(PID.TID 0000.0001)  cg2d: iter=    77 ; resid.=  6.78197223268556E-07
(PID.TID 0000.0001)  cg2d: iter=    78 ; resid.=  5.42138546546099E-07
(PID.TID 0000.0001)  cg2d: iter=    79 ; resid.=  4.65486709020208E-07
(PID.TID 0000.0001)  cg2d: iter=    80 ; resid.=  3.64551372174802E-07
(PID.TID 0000.0001)  cg2d: iter=    81 ; resid.=  2.87993274160766E-07
(PID.TID 0000.0001)  cg2d: iter=    82 ; resid.=  2.30038270903389E-07
(PID.TID 0000.0001)  cg2d: iter=    83 ; resid.=  1.89843186691043E-07
(PID.TID 0000.0001)  cg2d: iter=    84 ; resid.=  1.73666884513406E-07
(PID.TID 0000.0001)  cg2d: iter=    85 ; resid.=  1.50294498476015E-07
(PID.TID 0000.0001)  cg2d: iter=    86 ; resid.=  1.30254308946795E-07
(PID.TID 0000.0001)  cg2d: iter=    87 ; resid.=  1.07893747446074E-07
(PID.TID 0000.0001)  cg2d: iter=    88 ; resid.=  9.55928169314616E-08
(PID.TID 0000.0001)  cg2d: iter=    89 ; resid.=  7.88673069917511E-08
(PID.TID 0000.0001)  cg2d: iter=    90 ; resid.=  5.91981605538899E-08
(PID.TID 0000.0001)  cg2d: iter=    91 ; resid.=  4.87884329557611E-08
(PID.TID 0000.0001)  cg2d: iter=    92 ; resid.=  3.79902957284912E-08
(PID.TID 0000.0001)  cg2d: iter=    93 ; resid.=  2.90680274763439E-08
(PID.TID 0000.0001)  cg2d: iter=    94 ; resid.=  2.05307545187533E-08
(PID.TID 0000.0001)  cg2d: iter=    95 ; resid.=  1.45372700891605E-08
(PID.TID 0000.0001)  cg2d: iter=    96 ; resid.=  1.11134118566750E-08
(PID.TID 0000.0001)  cg2d: iter=    97 ; resid.=  8.29110110983681E-09
(PID.TID 0000.0001)  cg2d: iter=    98 ; resid.=  6.60072423489716E-09
(PID.TID 0000.0001)  cg2d: iter=    99 ; resid.=  5.41532026289740E-09
(PID.TID 0000.0001)  cg2d: iter=   100 ; resid.=  4.23856894246772E-09
(PID.TID 0000.0001)  cg2d: iter=   101 ; resid.=  3.01963817310390E-09
(PID.TID 0000.0001)  cg2d: iter=   102 ; resid.=  2.15320751268266E-09
(PID.TID 0000.0001)  cg2d: iter=   103 ; resid.=  1.55754425068793E-09
(PID.TID 0000.0001)  cg2d: iter=   104 ; resid.=  1.25862524833594E-09
(PID.TID 0000.0001)  cg2d: iter=   105 ; resid.=  1.04977602777101E-09
(PID.TID 0000.0001)  cg2d: iter=   106 ; resid.=  9.11142756982750E-10
(PID.TID 0000.0001)  cg2d: iter=   107 ; resid.=  6.84556589943985E-10
(PID.TID 0000.0001)  cg2d: iter=   108 ; resid.=  5.22689258873885E-10
(PID.TID 0000.0001)  cg2d: iter=   109 ; resid.=  4.26282648405631E-10
(PID.TID 0000.0001)  cg2d: iter=   110 ; resid.=  3.34648829762764E-10
(PID.TID 0000.0001)  cg2d: iter=   111 ; resid.=  2.66960887049798E-10
(PID.TID 0000.0001)  cg2d: iter=   112 ; resid.=  1.94570285632185E-10
(PID.TID 0000.0001)  cg2d: iter=   113 ; resid.=  1.59715615381666E-10
(PID.TID 0000.0001)  cg2d: iter=   114 ; resid.=  1.53546988058111E-10
(PID.TID 0000.0001)  cg2d: iter=   115 ; resid.=  1.25197582857485E-10
(PID.TID 0000.0001)  cg2d: iter=   116 ; resid.=  1.05400205247425E-10
(PID.TID 0000.0001)  cg2d: iter=   117 ; resid.=  9.16649071494647E-11
(PID.TID 0000.0001)  cg2d: iter=   118 ; resid.=  7.78877598228292E-11
(PID.TID 0000.0001)  cg2d: iter=   119 ; resid.=  6.44916315742939E-11
(PID.TID 0000.0001)  cg2d: iter=   120 ; resid.=  5.11539099750507E-11
(PID.TID 0000.0001)  cg2d: iter=   121 ; resid.=  3.73421220108202E-11
(PID.TID 0000.0001)  cg2d: iter=   122 ; resid.=  2.68406889889219E-11
(PID.TID 0000.0001)  cg2d: iter=   123 ; resid.=  1.85435705179607E-11
(PID.TID 0000.0001)  cg2d: iter=   124 ; resid.=  1.42607324707476E-11
(PID.TID 0000.0001)  cg2d: iter=   125 ; resid.=  1.13867305056323E-11
(PID.TID 0000.0001)  cg2d: iter=   126 ; resid.=  8.37943112269283E-12
(PID.TID 0000.0001)  cg2d: iter=   127 ; resid.=  5.84351069226845E-12
(PID.TID 0000.0001)  cg2d: iter=   128 ; resid.=  4.26156502807328E-12
(PID.TID 0000.0001)  cg2d: iter=   129 ; resid.=  3.24923280836433E-12
(PID.TID 0000.0001)  cg2d: iter=   130 ; resid.=  2.70568042611958E-12
(PID.TID 0000.0001)  cg2d: iter=   131 ; resid.=  2.32756081613554E-12
(PID.TID 0000.0001)  cg2d: iter=   132 ; resid.=  1.78103672180367E-12
(PID.TID 0000.0001)  cg2d: iter=   133 ; resid.=  1.30259230047472E-12
(PID.TID 0000.0001)  cg2d: iter=   134 ; resid.=  9.64789430954354E-13
(PID.TID 0000.0001)  cg2d: iter=   135 ; resid.=  6.90587032584964E-13
(PID.TID 0000.0001)  cg2d: iter=   136 ; resid.=  4.84388981736552E-13
(PID.TID 0000.0001)  cg2d: iter=   137 ; resid.=  3.53486359162975E-13
(PID.TID 0000.0001)  cg2d: iter=   138 ; resid.=  2.80561196771761E-13
(PID.TID 0000.0001)  cg2d: iter=   139 ; resid.=  2.46549185458516E-13
(PID.TID 0000.0001)  cg2d: iter=   140 ; resid.=  1.66395468022069E-13
(PID.TID 0000.0001)  cg2d: iter=   141 ; resid.=  1.12692891743996E-13
(PID.TID 0000.0001)  cg2d: iter=   142 ; resid.=  6.99529609499420E-14
DEBUG_STATS_RL:    cg2d_x (SOLVE_FOR_PRESSURE)  min= -1.82402852295631E+01
DEBUG_STATS_RL:    cg2d_x (SOLVE_FOR_PRESSURE)  max=  1.06289494422103E+01
DEBUG_STATS_RL:    cg2d_x (SOLVE_FOR_PRESSURE) mean= -1.35583917373362E+00
DEBUG_STATS_RL:    cg2d_x (SOLVE_FOR_PRESSURE) S.D.=  7.49077926781423E+00
(PID.TID 0000.0001)      cg2d_init_res =   9.88765758950089E-01
(PID.TID 0000.0001)      cg2d_iters(min,last) =      -1     142
(PID.TID 0000.0001)      cg2d_last_res =   6.99529609499420E-14
(PID.TID 0000.0001) // =======================================================
(PID.TID 0000.0001) // Begin MONITOR dynamic field statistics
(PID.TID 0000.0001) // =======================================================
(PID.TID 0000.0001) %MON time_tsnumber                =                     4
(PID.TID 0000.0001) %MON time_secondsf                =   3.4560000000000E+05
(PID.TID 0000.0001) %MON dynstat_eta_max              =   1.0834810848328E+00
(PID.TID 0000.0001) %MON dynstat_eta_min              =  -1.8593562925142E+00
(PID.TID 0000.0001) %MON dynstat_eta_mean             =  -2.6414035452014E-04
(PID.TID 0000.0001) %MON dynstat_eta_sd               =   6.7392133537017E-01
(PID.TID 0000.0001) %MON dynstat_eta_del2             =   2.5179195883289E-03
(PID.TID 0000.0001) %MON dynstat_uvel_max             =   1.1544615787201E-01
(PID.TID 0000.0001) %MON dynstat_uvel_min             =  -6.4912422630713E-02
(PID.TID 0000.0001) %MON dynstat_uvel_mean            =   1.2175998803645E-03
(PID.TID 0000.0001) %MON dynstat_uvel_sd              =   6.7488403291859E-03
(PID.TID 0000.0001) %MON dynstat_uvel_del2            =   6.0127730596851E-05
(PID.TID 0000.0001) %MON dynstat_vvel_max             =   9.8160160936569E-02
(PID.TID 0000.0001) %MON dynstat_vvel_min             =  -7.8297421836445E-02
(PID.TID 0000.0001) %MON dynstat_vvel_mean            =  -1.6891235163036E-03
(PID.TID 0000.0001) %MON dynstat_vvel_sd              =   8.0557104284417E-03
(PID.TID 0000.0001) %MON dynstat_vvel_del2            =   7.9556851748401E-05
(PID.TID 0000.0001) %MON dynstat_wvel_max             =   2.0858796908539E-04
(PID.TID 0000.0001) %MON dynstat_wvel_min             =  -1.4911847561499E-04
(PID.TID 0000.0001) %MON dynstat_wvel_mean            =   4.7000048680117E-22
(PID.TID 0000.0001) %MON dynstat_wvel_sd              =   2.0357482847535E-05
(PID.TID 0000.0001) %MON dynstat_wvel_del2            =   2.7956242481690E-07
(PID.TID 0000.0001) %MON dynstat_theta_max            =   2.9768417041562E+01
(PID.TID 0000.0001) %MON dynstat_theta_min            =  -1.9076279175535E+00
(PID.TID 0000.0001) %MON dynstat_theta_mean           =   3.6286539255082E+00
(PID.TID 0000.0001) %MON dynstat_theta_sd             =   4.4140285648526E+00
(PID.TID 0000.0001) %MON dynstat_theta_del2           =   5.4827762370030E-03
(PID.TID 0000.0001) %MON dynstat_salt_max             =   3.7455263680008E+01
(PID.TID 0000.0001) %MON dynstat_salt_min             =   2.9769196461615E+01
(PID.TID 0000.0001) %MON dynstat_salt_mean            =   3.4727953668393E+01
(PID.TID 0000.0001) %MON dynstat_salt_sd              =   2.9606073285035E-01
(PID.TID 0000.0001) %MON dynstat_salt_del2            =   1.0162114967395E-03
(PID.TID 0000.0001) %MON dynstat_sst_max              =   2.9768417041562E+01
(PID.TID 0000.0001) %MON dynstat_sst_min              =  -1.9076279175535E+00
(PID.TID 0000.0001) %MON dynstat_sst_mean             =   1.8528674972451E+01
(PID.TID 0000.0001) %MON dynstat_sst_sd               =   9.1344467554182E+00
(PID.TID 0000.0001) %MON dynstat_sst_del2             =   2.6605047926684E-02
(PID.TID 0000.0001) %MON dynstat_sss_max              =   3.7455263680008E+01
(PID.TID 0000.0001) %MON dynstat_sss_min              =   2.9769196461615E+01
(PID.TID 0000.0001) %MON dynstat_sss_mean             =   3.4860958922762E+01
(PID.TID 0000.0001) %MON dynstat_sss_sd               =   9.6467047568339E-01
(PID.TID 0000.0001) %MON dynstat_sss_del2             =   8.0119337371157E-03
(PID.TID 0000.0001) %MON forcing_qnet_max             =   4.2903536987305E+02
(PID.TID 0000.0001) %MON forcing_qnet_min             =  -1.8562549743652E+02
(PID.TID 0000.0001) %MON forcing_qnet_mean            =  -1.6662669470921E+01
(PID.TID 0000.0001) %MON forcing_qnet_sd              =   1.1221272517031E+02
(PID.TID 0000.0001) %MON forcing_qnet_del2            =   9.9444386812388E-01
(PID.TID 0000.0001) %MON forcing_qsw_max              =   0.0000000000000E+00
(PID.TID 0000.0001) %MON forcing_qsw_min              =   0.0000000000000E+00
(PID.TID 0000.0001) %MON forcing_qsw_mean             =   0.0000000000000E+00
(PID.TID 0000.0001) %MON forcing_qsw_sd               =   0.0000000000000E+00
(PID.TID 0000.0001) %MON forcing_qsw_del2             =   0.0000000000000E+00
(PID.TID 0000.0001) %MON forcing_empmr_max            =   8.2476260843123E-05
(PID.TID 0000.0001) %MON forcing_empmr_min            =  -7.3379955267683E-05
(PID.TID 0000.0001) %MON forcing_empmr_mean           =   8.0569996916457E-07
(PID.TID 0000.0001) %MON forcing_empmr_sd             =   2.7920083767862E-05
(PID.TID 0000.0001) %MON forcing_empmr_del2           =   3.6296416696684E-07
(PID.TID 0000.0001) %MON forcing_fu_max               =   2.7231434583664E-01
(PID.TID 0000.0001) %MON forcing_fu_min               =  -1.6111952960491E-01
(PID.TID 0000.0001) %MON forcing_fu_mean              =   1.6094049005012E-02
(PID.TID 0000.0001) %MON forcing_fu_sd                =   9.0140377513934E-02
(PID.TID 0000.0001) %MON forcing_fu_del2              =   6.5893332094781E-04
(PID.TID 0000.0001) %MON forcing_fv_max               =   2.1056245863438E-01
(PID.TID 0000.0001) %MON forcing_fv_min               =  -1.8515278995037E-01
(PID.TID 0000.0001) %MON forcing_fv_mean              =  -6.1440480618347E-03
(PID.TID 0000.0001) %MON forcing_fv_sd                =   4.5513649503191E-02
(PID.TID 0000.0001) %MON forcing_fv_del2              =   4.4740184358134E-04
(PID.TID 0000.0001) %MON trAdv_CFL_u_max              =   2.3343545867948E-02
(PID.TID 0000.0001) %MON trAdv_CFL_v_max              =   1.9916073330981E-02
(PID.TID 0000.0001) %MON trAdv_CFL_w_max              =   4.6649651217329E-02
(PID.TID 0000.0001) %MON advcfl_uvel_max              =   2.9906541049464E-02
(PID.TID 0000.0001) %MON advcfl_vvel_max              =   1.9070944970265E-02
(PID.TID 0000.0001) %MON advcfl_wvel_max              =   6.1193498352891E-02
(PID.TID 0000.0001) %MON advcfl_W_hf_max              =   6.7872791695259E-02
(PID.TID 0000.0001) %MON pe_b_mean                    =   5.8116530350975E-04
(PID.TID 0000.0001) %MON ke_max                       =   5.8973569589398E-03
(PID.TID 0000.0001) %MON ke_mean                      =   5.1781037646102E-05
(PID.TID 0000.0001) %MON ke_vol                       =   1.3226782436723E+18
(PID.TID 0000.0001) %MON vort_r_min                   =  -3.0889228488809E-07
(PID.TID 0000.0001) %MON vort_r_max                   =   3.8708013294505E-07
(PID.TID 0000.0001) %MON vort_a_mean                  =  -2.5274807609709E-05
(PID.TID 0000.0001) %MON vort_a_sd                    =   7.3604532944613E-05
(PID.TID 0000.0001) %MON vort_p_mean                  =  -3.1845656066912E-05
(PID.TID 0000.0001) %MON vort_p_sd                    =   1.3162439100750E-04
(PID.TID 0000.0001) %MON surfExpan_theta_mean         =  -9.6722178759703E-06
(PID.TID 0000.0001) %MON surfExpan_salt_mean          =  -3.2854707480870E-07
(PID.TID 0000.0001) // =======================================================
(PID.TID 0000.0001) // End MONITOR dynamic field statistics
(PID.TID 0000.0001) // =======================================================
 EXTERNAL_FIELDS_LOAD,         4 : iP,iLd,i0,i1=   12    1   12    1 ; Wght=  0.3666666667  0.6333333333
 EXTERNAL_FIELDS_LOAD: (fu0,1),fu,fv= -4.5368E-02 -3.5633E-02 -3.9202E-02 -6.2020E-02
 EXTERNAL_FIELDS_LOAD: SST,SSS,Q,E-P=  2.9456E-01  3.4457E+01  2.6528E+02  1.1055E-05
DEBUG_STATS_RL:          Uvel (THERMODYNAMICS)  min= -6.49124226307128E-02
DEBUG_STATS_RL:          Uvel (THERMODYNAMICS)  max=  1.15446157872007E-01
DEBUG_STATS_RL:          Uvel (THERMODYNAMICS) mean=  3.22923308326668E-03
DEBUG_STATS_RL:          Uvel (THERMODYNAMICS) S.D.=  1.01604470402695E-02
DEBUG_STATS_RL:          Vvel (THERMODYNAMICS)  min= -7.82974218364447E-02
DEBUG_STATS_RL:          Vvel (THERMODYNAMICS)  max=  9.81601609365690E-02
DEBUG_STATS_RL:          Vvel (THERMODYNAMICS) mean= -3.09176153179501E-03
DEBUG_STATS_RL:          Vvel (THERMODYNAMICS) S.D.=  1.17751383783157E-02
DEBUG_STATS_RL:          Wvel (THERMODYNAMICS)  min= -1.49118475614988E-04
DEBUG_STATS_RL:          Wvel (THERMODYNAMICS)  max=  2.08587969085392E-04
DEBUG_STATS_RL:          Wvel (THERMODYNAMICS) mean= -1.72335967099840E-07
DEBUG_STATS_RL:          Wvel (THERMODYNAMICS) S.D.=  1.94275294239544E-05
DEBUG_STATS_RL:         Theta (THERMODYNAMICS)  min= -1.90817537436088E+00
DEBUG_STATS_RL:         Theta (THERMODYNAMICS)  max=  2.98059377814567E+01
DEBUG_STATS_RL:         Theta (THERMODYNAMICS) mean=  3.20851182366567E+00
DEBUG_STATS_RL:         Theta (THERMODYNAMICS) S.D.=  5.84703631191398E+00
DEBUG_STATS_RL:          Salt (THERMODYNAMICS)  min=  1.00000000000000E-02
DEBUG_STATS_RL:          Salt (THERMODYNAMICS)  max=  3.74503412638144E+01
DEBUG_STATS_RL:          Salt (THERMODYNAMICS) mean=  1.88551107844949E+01
DEBUG_STATS_RL:          Salt (THERMODYNAMICS) S.D.=  1.73005818042704E+01
DEBUG_STATS_RL:         GtNm1 (THERMODYNAMICS)  min= -2.95020806877329E-06
DEBUG_STATS_RL:         GtNm1 (THERMODYNAMICS)  max=  2.00951156874594E-06
DEBUG_STATS_RL:         GtNm1 (THERMODYNAMICS) mean=  2.92097318352260E-08
DEBUG_STATS_RL:         GtNm1 (THERMODYNAMICS) S.D.=  2.38639400058031E-07
DEBUG_STATS_RL:         GsNm1 (THERMODYNAMICS)  min= -3.91919159051885E-07
DEBUG_STATS_RL:         GsNm1 (THERMODYNAMICS)  max=  4.64706497595392E-07
DEBUG_STATS_RL:         GsNm1 (THERMODYNAMICS) mean=  6.86746492974239E-10
DEBUG_STATS_RL:         GsNm1 (THERMODYNAMICS) S.D.=  1.80535101946843E-08
DEBUG_STATS_RL:                EtaN (DYNAMICS)  min= -1.85935629251420E+00
DEBUG_STATS_RL:                EtaN (DYNAMICS)  max=  1.08348108483285E+00
DEBUG_STATS_RL:                EtaN (DYNAMICS) mean= -1.38209905579370E-01
DEBUG_STATS_RL:                EtaN (DYNAMICS) S.D.=  7.63586061958639E-01
DEBUG_STATS_RL:                Uvel (DYNAMICS)  min= -6.49124226307128E-02
DEBUG_STATS_RL:                Uvel (DYNAMICS)  max=  1.15446157872007E-01
DEBUG_STATS_RL:                Uvel (DYNAMICS) mean=  3.22923308326668E-03
DEBUG_STATS_RL:                Uvel (DYNAMICS) S.D.=  1.01604470402695E-02
DEBUG_STATS_RL:                Vvel (DYNAMICS)  min= -7.82974218364447E-02
DEBUG_STATS_RL:                Vvel (DYNAMICS)  max=  9.81601609365690E-02
DEBUG_STATS_RL:                Vvel (DYNAMICS) mean= -3.09176153179501E-03
DEBUG_STATS_RL:                Vvel (DYNAMICS) S.D.=  1.17751383783157E-02
DEBUG_STATS_RL:                Wvel (DYNAMICS)  min= -1.49118475614988E-04
DEBUG_STATS_RL:                Wvel (DYNAMICS)  max=  2.08587969085392E-04
DEBUG_STATS_RL:                Wvel (DYNAMICS) mean= -1.72335967099840E-07
DEBUG_STATS_RL:                Wvel (DYNAMICS) S.D.=  1.94275294239544E-05
DEBUG_STATS_RL:               Theta (DYNAMICS)  min= -1.90817537436088E+00
DEBUG_STATS_RL:               Theta (DYNAMICS)  max=  2.98059377814567E+01
DEBUG_STATS_RL:               Theta (DYNAMICS) mean=  3.20851182366567E+00
DEBUG_STATS_RL:               Theta (DYNAMICS) S.D.=  5.84703631191398E+00
DEBUG_STATS_RL:                Salt (DYNAMICS)  min=  1.00000000000000E-02
DEBUG_STATS_RL:                Salt (DYNAMICS)  max=  3.74503412638144E+01
DEBUG_STATS_RL:                Salt (DYNAMICS) mean=  1.88551107844949E+01
DEBUG_STATS_RL:                Salt (DYNAMICS) S.D.=  1.73005818042704E+01
DEBUG_STATS_RL:                  Gu (DYNAMICS)  min= -6.87762328987313E-02
DEBUG_STATS_RL:                  Gu (DYNAMICS)  max=  1.11730517457444E-01
DEBUG_STATS_RL:                  Gu (DYNAMICS) mean=  3.16693313233543E-03
DEBUG_STATS_RL:                  Gu (DYNAMICS) S.D.=  1.22247439878382E-02
DEBUG_STATS_RL:                  Gv (DYNAMICS)  min= -7.15529759129569E-02
DEBUG_STATS_RL:                  Gv (DYNAMICS)  max=  9.98544702952365E-02
DEBUG_STATS_RL:                  Gv (DYNAMICS) mean= -1.73597311217120E-03
DEBUG_STATS_RL:                  Gv (DYNAMICS) S.D.=  1.24123224269755E-02
DEBUG_STATS_RL:               GuNm1 (DYNAMICS)  min= -8.52225898028708E-06
DEBUG_STATS_RL:               GuNm1 (DYNAMICS)  max=  8.17071038064130E-06
DEBUG_STATS_RL:               GuNm1 (DYNAMICS) mean= -4.10564988949983E-08
DEBUG_STATS_RL:               GuNm1 (DYNAMICS) S.D.=  1.32441553460396E-06
DEBUG_STATS_RL:               GvNm1 (DYNAMICS)  min= -1.14632941056504E-05
DEBUG_STATS_RL:               GvNm1 (DYNAMICS)  max=  1.69158777436469E-05
DEBUG_STATS_RL:               GvNm1 (DYNAMICS) mean=  7.79424465688709E-07
DEBUG_STATS_RL:               GvNm1 (DYNAMICS) S.D.=  2.81766173775140E-06
DEBUG_STATS_RL:               GtNm1 (DYNAMICS)  min= -2.95020806877329E-06
DEBUG_STATS_RL:               GtNm1 (DYNAMICS)  max=  2.00951156874594E-06
DEBUG_STATS_RL:               GtNm1 (DYNAMICS) mean=  2.92097318352260E-08
DEBUG_STATS_RL:               GtNm1 (DYNAMICS) S.D.=  2.38639400058031E-07
DEBUG_STATS_RL:               GsNm1 (DYNAMICS)  min= -3.91919159051885E-07
DEBUG_STATS_RL:               GsNm1 (DYNAMICS)  max=  4.64706497595392E-07
DEBUG_STATS_RL:               GsNm1 (DYNAMICS) mean=  6.86746492974239E-10
DEBUG_STATS_RL:               GsNm1 (DYNAMICS) S.D.=  1.80535101946843E-08
DEBUG_STATS_RL:    cg2d_b (SOLVE_FOR_PRESSURE)  min= -3.01679736103722E+04
DEBUG_STATS_RL:    cg2d_b (SOLVE_FOR_PRESSURE)  max=  1.75294471343174E+04
DEBUG_STATS_RL:    cg2d_b (SOLVE_FOR_PRESSURE) mean=  3.18403286840505E-01
DEBUG_STATS_RL:    cg2d_b (SOLVE_FOR_PRESSURE) S.D.=  4.48864513379611E+03
 cg2d: Sum(rhs),rhsMax =   2.44333152288011E-02  1.98151327923746E+00
(PID.TID 0000.0001)  cg2d: iter=     1 ; resid.=  9.89906964950320E-01
(PID.TID 0000.0001)  cg2d: iter=     2 ; resid.=  1.30359658787489E+00
(PID.TID 0000.0001)  cg2d: iter=     3 ; resid.=  1.01684686640725E+00
(PID.TID 0000.0001)  cg2d: iter=     4 ; resid.=  8.05579623259476E-01
(PID.TID 0000.0001)  cg2d: iter=     5 ; resid.=  7.70612209309731E-01
(PID.TID 0000.0001)  cg2d: iter=     6 ; resid.=  5.49943803233977E-01
(PID.TID 0000.0001)  cg2d: iter=     7 ; resid.=  4.01773049327107E-01
(PID.TID 0000.0001)  cg2d: iter=     8 ; resid.=  3.42979076534590E-01
(PID.TID 0000.0001)  cg2d: iter=     9 ; resid.=  3.49683679089109E-01
(PID.TID 0000.0001)  cg2d: iter=    10 ; resid.=  2.94306286855674E-01
(PID.TID 0000.0001)  cg2d: iter=    11 ; resid.=  2.51846118813205E-01
(PID.TID 0000.0001)  cg2d: iter=    12 ; resid.=  2.15350881361105E-01
(PID.TID 0000.0001)  cg2d: iter=    13 ; resid.=  1.98150773356761E-01
(PID.TID 0000.0001)  cg2d: iter=    14 ; resid.=  1.79710556074229E-01
(PID.TID 0000.0001)  cg2d: iter=    15 ; resid.=  1.57937941270323E-01
(PID.TID 0000.0001)  cg2d: iter=    16 ; resid.=  1.39597812783614E-01
(PID.TID 0000.0001)  cg2d: iter=    17 ; resid.=  1.19046686249214E-01
(PID.TID 0000.0001)  cg2d: iter=    18 ; resid.=  9.44606245731138E-02
(PID.TID 0000.0001)  cg2d: iter=    19 ; resid.=  7.08740293513590E-02
(PID.TID 0000.0001)  cg2d: iter=    20 ; resid.=  5.61780577528305E-02
(PID.TID 0000.0001)  cg2d: iter=    21 ; resid.=  4.94467808151492E-02
(PID.TID 0000.0001)  cg2d: iter=    22 ; resid.=  4.46107698160904E-02
(PID.TID 0000.0001)  cg2d: iter=    23 ; resid.=  3.41122811847114E-02
(PID.TID 0000.0001)  cg2d: iter=    24 ; resid.=  2.86281343665959E-02
(PID.TID 0000.0001)  cg2d: iter=    25 ; resid.=  2.35117052528503E-02
(PID.TID 0000.0001)  cg2d: iter=    26 ; resid.=  1.93796073546569E-02
(PID.TID 0000.0001)  cg2d: iter=    27 ; resid.=  1.68509023786828E-02
(PID.TID 0000.0001)  cg2d: iter=    28 ; resid.=  1.32700292448600E-02
(PID.TID 0000.0001)  cg2d: iter=    29 ; resid.=  1.08520290673972E-02
(PID.TID 0000.0001)  cg2d: iter=    30 ; resid.=  8.78455293450913E-03
(PID.TID 0000.0001)  cg2d: iter=    31 ; resid.=  7.17343553566045E-03
(PID.TID 0000.0001)  cg2d: iter=    32 ; resid.=  5.55482672904837E-03
(PID.TID 0000.0001)  cg2d: iter=    33 ; resid.=  4.65047448746226E-03
(PID.TID 0000.0001)  cg2d: iter=    34 ; resid.=  3.98446600372345E-03
(PID.TID 0000.0001)  cg2d: iter=    35 ; resid.=  3.44924154736284E-03
(PID.TID 0000.0001)  cg2d: iter=    36 ; resid.=  2.93503824842862E-03
(PID.TID 0000.0001)  cg2d: iter=    37 ; resid.=  2.23023904740351E-03
(PID.TID 0000.0001)  cg2d: iter=    38 ; resid.=  1.58345096183580E-03
(PID.TID 0000.0001)  cg2d: iter=    39 ; resid.=  1.21737130536980E-03
(PID.TID 0000.0001)  cg2d: iter=    40 ; resid.=  1.05880306830155E-03
(PID.TID 0000.0001)  cg2d: iter=    41 ; resid.=  8.89146567885932E-04
(PID.TID 0000.0001)  cg2d: iter=    42 ; resid.=  8.14091918619138E-04
(PID.TID 0000.0001)  cg2d: iter=    43 ; resid.=  5.80042337088527E-04
(PID.TID 0000.0001)  cg2d: iter=    44 ; resid.=  4.43863972150420E-04
(PID.TID 0000.0001)  cg2d: iter=    45 ; resid.=  3.87494278895762E-04
(PID.TID 0000.0001)  cg2d: iter=    46 ; resid.=  2.94428064978411E-04
(PID.TID 0000.0001)  cg2d: iter=    47 ; resid.=  2.22235371056564E-04
(PID.TID 0000.0001)  cg2d: iter=    48 ; resid.=  1.93174712338878E-04
(PID.TID 0000.0001)  cg2d: iter=    49 ; resid.=  1.72528495482656E-04
(PID.TID 0000.0001)  cg2d: iter=    50 ; resid.=  1.59839250212416E-04
(PID.TID 0000.0001)  cg2d: iter=    51 ; resid.=  1.38775067357650E-04
(PID.TID 0000.0001)  cg2d: iter=    52 ; resid.=  1.13195408772336E-04
(PID.TID 0000.0001)  cg2d: iter=    53 ; resid.=  9.69265653417491E-05
(PID.TID 0000.0001)  cg2d: iter=    54 ; resid.=  7.72315245939271E-05
(PID.TID 0000.0001)  cg2d: iter=    55 ; resid.=  6.14274924979675E-05
(PID.TID 0000.0001)  cg2d: iter=    56 ; resid.=  4.90225727467672E-05
(PID.TID 0000.0001)  cg2d: iter=    57 ; resid.=  4.05115316667804E-05
(PID.TID 0000.0001)  cg2d: iter=    58 ; resid.=  3.22137580433068E-05
(PID.TID 0000.0001)  cg2d: iter=    59 ; resid.=  2.40519767657749E-05
(PID.TID 0000.0001)  cg2d: iter=    60 ; resid.=  1.92664545779130E-05
(PID.TID 0000.0001)  cg2d: iter=    61 ; resid.=  1.50882078526045E-05
(PID.TID 0000.0001)  cg2d: iter=    62 ; resid.=  1.24423153288197E-05
(PID.TID 0000.0001)  cg2d: iter=    63 ; resid.=  1.00066345323741E-05
(PID.TID 0000.0001)  cg2d: iter=    64 ; resid.=  8.19641050893420E-06
(PID.TID 0000.0001)  cg2d: iter=    65 ; resid.=  6.84333457506009E-06
(PID.TID 0000.0001)  cg2d: iter=    66 ; resid.=  5.36241970463781E-06
(PID.TID 0000.0001)  cg2d: iter=    67 ; resid.=  4.48598436265249E-06
(PID.TID 0000.0001)  cg2d: iter=    68 ; resid.=  3.85440670482939E-06
(PID.TID 0000.0001)  cg2d: iter=    69 ; resid.=  2.99973251490795E-06
(PID.TID 0000.0001)  cg2d: iter=    70 ; resid.=  2.37649564389435E-06
(PID.TID 0000.0001)  cg2d: iter=    71 ; resid.=  1.78972804618638E-06
(PID.TID 0000.0001)  cg2d: iter=    72 ; resid.=  1.35311046702178E-06
(PID.TID 0000.0001)  cg2d: iter=    73 ; resid.=  1.14239135111662E-06
(PID.TID 0000.0001)  cg2d: iter=    74 ; resid.=  9.29135767155271E-07
(PID.TID 0000.0001)  cg2d: iter=    75 ; resid.=  7.60159294678876E-07
(PID.TID 0000.0001)  cg2d: iter=    76 ; resid.=  6.33553334814301E-07
(PID.TID 0000.0001)  cg2d: iter=    77 ; resid.=  5.48782982661602E-07
(PID.TID 0000.0001)  cg2d: iter=    78 ; resid.=  4.39023535713936E-07
(PID.TID 0000.0001)  cg2d: iter=    79 ; resid.=  3.52226220917733E-07
(PID.TID 0000.0001)  cg2d: iter=    80 ; resid.=  2.86818011789914E-07
(PID.TID 0000.0001)  cg2d: iter=    81 ; resid.=  2.28709359930033E-07
(PID.TID 0000.0001)  cg2d: iter=    82 ; resid.=  1.86711107616357E-07
(PID.TID 0000.0001)  cg2d: iter=    83 ; resid.=  1.60891088852741E-07
(PID.TID 0000.0001)  cg2d: iter=    84 ; resid.=  1.43576506064371E-07
(PID.TID 0000.0001)  cg2d: iter=    85 ; resid.=  1.23032178876440E-07
(PID.TID 0000.0001)  cg2d: iter=    86 ; resid.=  1.05935829699347E-07
(PID.TID 0000.0001)  cg2d: iter=    87 ; resid.=  8.79509686359556E-08
(PID.TID 0000.0001)  cg2d: iter=    88 ; resid.=  8.04397802027653E-08
(PID.TID 0000.0001)  cg2d: iter=    89 ; resid.=  7.13139710291282E-08
(PID.TID 0000.0001)  cg2d: iter=    90 ; resid.=  5.53901053092682E-08
(PID.TID 0000.0001)  cg2d: iter=    91 ; resid.=  4.66068110218883E-08
(PID.TID 0000.0001)  cg2d: iter=    92 ; resid.=  3.59085299935408E-08
(PID.TID 0000.0001)  cg2d: iter=    93 ; resid.=  2.65669233363912E-08
(PID.TID 0000.0001)  cg2d: iter=    94 ; resid.=  1.83617343242125E-08
(PID.TID 0000.0001)  cg2d: iter=    95 ; resid.=  1.35168016425885E-08
(PID.TID 0000.0001)  cg2d: iter=    96 ; resid.=  1.11664829299625E-08
(PID.TID 0000.0001)  cg2d: iter=    97 ; resid.=  8.92236766496027E-09
(PID.TID 0000.0001)  cg2d: iter=    98 ; resid.=  7.26572594835592E-09
(PID.TID 0000.0001)  cg2d: iter=    99 ; resid.=  6.04908231798793E-09
(PID.TID 0000.0001)  cg2d: iter=   100 ; resid.=  4.90878329779182E-09
(PID.TID 0000.0001)  cg2d: iter=   101 ; resid.=  3.71988056620432E-09
(PID.TID 0000.0001)  cg2d: iter=   102 ; resid.=  2.98811360524509E-09
(PID.TID 0000.0001)  cg2d: iter=   103 ; resid.=  2.50861820399510E-09
(PID.TID 0000.0001)  cg2d: iter=   104 ; resid.=  2.21928393893427E-09
(PID.TID 0000.0001)  cg2d: iter=   105 ; resid.=  1.88938575603573E-09
(PID.TID 0000.0001)  cg2d: iter=   106 ; resid.=  1.64123555459250E-09
(PID.TID 0000.0001)  cg2d: iter=   107 ; resid.=  1.25532827472216E-09
(PID.TID 0000.0001)  cg2d: iter=   108 ; resid.=  9.56819270751201E-10
(PID.TID 0000.0001)  cg2d: iter=   109 ; resid.=  8.23640971164642E-10
(PID.TID 0000.0001)  cg2d: iter=   110 ; resid.=  6.35658830908919E-10
(PID.TID 0000.0001)  cg2d: iter=   111 ; resid.=  5.12654120425100E-10
(PID.TID 0000.0001)  cg2d: iter=   112 ; resid.=  3.78792056256153E-10
(PID.TID 0000.0001)  cg2d: iter=   113 ; resid.=  3.25428293766932E-10
(PID.TID 0000.0001)  cg2d: iter=   114 ; resid.=  2.74770054483395E-10
(PID.TID 0000.0001)  cg2d: iter=   115 ; resid.=  2.12430989475398E-10
(PID.TID 0000.0001)  cg2d: iter=   116 ; resid.=  1.49781036358550E-10
(PID.TID 0000.0001)  cg2d: iter=   117 ; resid.=  1.13833651626435E-10
(PID.TID 0000.0001)  cg2d: iter=   118 ; resid.=  8.48592275093220E-11
(PID.TID 0000.0001)  cg2d: iter=   119 ; resid.=  6.54429032819803E-11
(PID.TID 0000.0001)  cg2d: iter=   120 ; resid.=  4.87253819461905E-11
(PID.TID 0000.0001)  cg2d: iter=   121 ; resid.=  3.45363505498375E-11
(PID.TID 0000.0001)  cg2d: iter=   122 ; resid.=  2.65595224378551E-11
(PID.TID 0000.0001)  cg2d: iter=   123 ; resid.=  1.76408984837265E-11
(PID.TID 0000.0001)  cg2d: iter=   124 ; resid.=  1.26304718244661E-11
(PID.TID 0000.0001)  cg2d: iter=   125 ; resid.=  9.25868400527429E-12
(PID.TID 0000.0001)  cg2d: iter=   126 ; resid.=  6.60834447493291E-12
(PID.TID 0000.0001)  cg2d: iter=   127 ; resid.=  4.56426986710522E-12
(PID.TID 0000.0001)  cg2d: iter=   128 ; resid.=  3.60761241300607E-12
(PID.TID 0000.0001)  cg2d: iter=   129 ; resid.=  3.03353618014799E-12
(PID.TID 0000.0001)  cg2d: iter=   130 ; resid.=  2.40228990720506E-12
(PID.TID 0000.0001)  cg2d: iter=   131 ; resid.=  2.05743302708494E-12
(PID.TID 0000.0001)  cg2d: iter=   132 ; resid.=  1.60304461908531E-12
(PID.TID 0000.0001)  cg2d: iter=   133 ; resid.=  1.19686325429278E-12
(PID.TID 0000.0001)  cg2d: iter=   134 ; resid.=  9.02913268386979E-13
(PID.TID 0000.0001)  cg2d: iter=   135 ; resid.=  6.34107957945672E-13
(PID.TID 0000.0001)  cg2d: iter=   136 ; resid.=  4.42647015627350E-13
(PID.TID 0000.0001)  cg2d: iter=   137 ; resid.=  3.23059665865288E-13
(PID.TID 0000.0001)  cg2d: iter=   138 ; resid.=  2.43236841995182E-13
(PID.TID 0000.0001)  cg2d: iter=   139 ; resid.=  1.86196959177596E-13
(PID.TID 0000.0001)  cg2d: iter=   140 ; resid.=  1.26514845044593E-13
(PID.TID 0000.0001)  cg2d: iter=   141 ; resid.=  9.10423012019918E-14
DEBUG_STATS_RL:    cg2d_x (SOLVE_FOR_PRESSURE)  min= -1.43818631685954E+01
DEBUG_STATS_RL:    cg2d_x (SOLVE_FOR_PRESSURE)  max=  1.32865350693086E+01
DEBUG_STATS_RL:    cg2d_x (SOLVE_FOR_PRESSURE) mean= -1.00044554524480E+00
DEBUG_STATS_RL:    cg2d_x (SOLVE_FOR_PRESSURE) S.D.=  6.15716743576454E+00
(PID.TID 0000.0001)      cg2d_init_res =   9.51266747134466E-01
(PID.TID 0000.0001)      cg2d_iters(min,last) =      -1     141
(PID.TID 0000.0001)      cg2d_last_res =   9.10423012019918E-14
(PID.TID 0000.0001) // =======================================================
(PID.TID 0000.0001) // Begin MONITOR dynamic field statistics
(PID.TID 0000.0001) // =======================================================
(PID.TID 0000.0001) %MON time_tsnumber                =                     5
(PID.TID 0000.0001) %MON time_secondsf                =   4.3200000000000E+05
(PID.TID 0000.0001) %MON dynstat_eta_max              =   1.3543868572179E+00
(PID.TID 0000.0001) %MON dynstat_eta_min              =  -1.4660410977158E+00
(PID.TID 0000.0001) %MON dynstat_eta_mean             =  -3.3221434911377E-04
(PID.TID 0000.0001) %MON dynstat_eta_sd               =   5.8066416828385E-01
(PID.TID 0000.0001) %MON dynstat_eta_del2             =   2.4401320934784E-03
(PID.TID 0000.0001) %MON dynstat_uvel_max             =   1.0745875169156E-01
(PID.TID 0000.0001) %MON dynstat_uvel_min             =  -8.8076606884259E-02
(PID.TID 0000.0001) %MON dynstat_uvel_mean            =   1.5227743649619E-03
(PID.TID 0000.0001) %MON dynstat_uvel_sd              =   7.6285937981706E-03
(PID.TID 0000.0001) %MON dynstat_uvel_del2            =   6.8421044515433E-05
(PID.TID 0000.0001) %MON dynstat_vvel_max             =   8.7564923753417E-02
(PID.TID 0000.0001) %MON dynstat_vvel_min             =  -9.3190333966876E-02
(PID.TID 0000.0001) %MON dynstat_vvel_mean            =  -1.9114102538225E-03
(PID.TID 0000.0001) %MON dynstat_vvel_sd              =   9.0657667445980E-03
(PID.TID 0000.0001) %MON dynstat_vvel_del2            =   9.1743660614032E-05
(PID.TID 0000.0001) %MON dynstat_wvel_max             =   2.2813424077231E-04
(PID.TID 0000.0001) %MON dynstat_wvel_min             =  -1.6697159692439E-04
(PID.TID 0000.0001) %MON dynstat_wvel_mean            =  -9.6208923033894E-23
(PID.TID 0000.0001) %MON dynstat_wvel_sd              =   2.2818415110761E-05
(PID.TID 0000.0001) %MON dynstat_wvel_del2            =   3.0799210039369E-07
(PID.TID 0000.0001) %MON dynstat_theta_max            =   2.9805937781457E+01
(PID.TID 0000.0001) %MON dynstat_theta_min            =  -1.9081753743609E+00
(PID.TID 0000.0001) %MON dynstat_theta_mean           =   3.6291032086994E+00
(PID.TID 0000.0001) %MON dynstat_theta_sd             =   4.4149026836110E+00
(PID.TID 0000.0001) %MON dynstat_theta_del2           =   5.4103032804320E-03
(PID.TID 0000.0001) %MON dynstat_salt_max             =   3.7450341263814E+01
(PID.TID 0000.0001) %MON dynstat_salt_min             =   2.9773332131663E+01
(PID.TID 0000.0001) %MON dynstat_salt_mean            =   3.4727969202702E+01
(PID.TID 0000.0001) %MON dynstat_salt_sd              =   2.9610178755695E-01
(PID.TID 0000.0001) %MON dynstat_salt_del2            =   1.0143327065545E-03
(PID.TID 0000.0001) %MON dynstat_sst_max              =   2.9805937781457E+01
(PID.TID 0000.0001) %MON dynstat_sst_min              =  -1.9081753743609E+00
(PID.TID 0000.0001) %MON dynstat_sst_mean             =   1.8545123503960E+01
(PID.TID 0000.0001) %MON dynstat_sst_sd               =   9.1290080724446E+00
(PID.TID 0000.0001) %MON dynstat_sst_del2             =   2.6463736618611E-02
(PID.TID 0000.0001) %MON dynstat_sss_max              =   3.7450341263814E+01
(PID.TID 0000.0001) %MON dynstat_sss_min              =   2.9773332131663E+01
(PID.TID 0000.0001) %MON dynstat_sss_mean             =   3.4861490740851E+01
(PID.TID 0000.0001) %MON dynstat_sss_sd               =   9.6531044074587E-01
(PID.TID 0000.0001) %MON dynstat_sss_del2             =   8.0108557436692E-03
(PID.TID 0000.0001) %MON forcing_qnet_max             =   4.3008355712891E+02
(PID.TID 0000.0001) %MON forcing_qnet_min             =  -1.8515833485921E+02
(PID.TID 0000.0001) %MON forcing_qnet_mean            =  -1.6650157515098E+01
(PID.TID 0000.0001) %MON forcing_qnet_sd              =   1.1200321531664E+02
(PID.TID 0000.0001) %MON forcing_qnet_del2            =   9.9601163526981E-01
(PID.TID 0000.0001) %MON forcing_qsw_max              =   0.0000000000000E+00
(PID.TID 0000.0001) %MON forcing_qsw_min              =   0.0000000000000E+00
(PID.TID 0000.0001) %MON forcing_qsw_mean             =   0.0000000000000E+00
(PID.TID 0000.0001) %MON forcing_qsw_sd               =   0.0000000000000E+00
(PID.TID 0000.0001) %MON forcing_qsw_del2             =   0.0000000000000E+00
(PID.TID 0000.0001) %MON forcing_empmr_max            =   8.2220427088942E-05
(PID.TID 0000.0001) %MON forcing_empmr_min            =  -7.3116771659443E-05
(PID.TID 0000.0001) %MON forcing_empmr_mean           =   8.1546972691007E-07
(PID.TID 0000.0001) %MON forcing_empmr_sd             =   2.7970424919056E-05
(PID.TID 0000.0001) %MON forcing_empmr_del2           =   3.6272300962791E-07
(PID.TID 0000.0001) %MON forcing_fu_max               =   2.7145579755306E-01
(PID.TID 0000.0001) %MON forcing_fu_min               =  -1.6193294972181E-01
(PID.TID 0000.0001) %MON forcing_fu_mean              =   1.6086356183975E-02
(PID.TID 0000.0001) %MON forcing_fu_sd                =   9.0157845327697E-02
(PID.TID 0000.0001) %MON forcing_fu_del2              =   6.6174969745051E-04
(PID.TID 0000.0001) %MON forcing_fv_max               =   2.1244236379862E-01
(PID.TID 0000.0001) %MON forcing_fv_min               =  -1.8456813246012E-01
(PID.TID 0000.0001) %MON forcing_fv_mean              =  -6.0702855349739E-03
(PID.TID 0000.0001) %MON forcing_fv_sd                =   4.5662631572644E-02
(PID.TID 0000.0001) %MON forcing_fv_del2              =   4.4897783530480E-04
(PID.TID 0000.0001) %MON trAdv_CFL_u_max              =   2.9912615281847E-02
(PID.TID 0000.0001) %MON trAdv_CFL_v_max              =   1.9180579698142E-02
(PID.TID 0000.0001) %MON trAdv_CFL_w_max              =   5.5918196770745E-02
(PID.TID 0000.0001) %MON advcfl_uvel_max              =   3.5518944956627E-02
(PID.TID 0000.0001) %MON advcfl_vvel_max              =   1.8105387296496E-02
(PID.TID 0000.0001) %MON advcfl_wvel_max              =   6.7133268755560E-02
(PID.TID 0000.0001) %MON advcfl_W_hf_max              =   7.5854454414965E-02
(PID.TID 0000.0001) %MON pe_b_mean                    =   4.3145091764993E-04
(PID.TID 0000.0001) %MON ke_max                       =   6.1829210313845E-03
(PID.TID 0000.0001) %MON ke_mean                      =   6.6030620196880E-05
(PID.TID 0000.0001) %MON ke_vol                       =   1.3226782436723E+18
(PID.TID 0000.0001) %MON vort_r_min                   =  -3.1743637023277E-07
(PID.TID 0000.0001) %MON vort_r_max                   =   3.6918726293904E-07
(PID.TID 0000.0001) %MON vort_a_mean                  =  -2.5274807497021E-05
(PID.TID 0000.0001) %MON vort_a_sd                    =   7.3604618675064E-05
(PID.TID 0000.0001) %MON vort_p_mean                  =  -3.1845655924928E-05
(PID.TID 0000.0001) %MON vort_p_sd                    =   1.3162423866484E-04
(PID.TID 0000.0001) %MON surfExpan_theta_mean         =  -1.0422916256934E-05
(PID.TID 0000.0001) %MON surfExpan_salt_mean          =  -4.3953409645847E-07
(PID.TID 0000.0001) // =======================================================
(PID.TID 0000.0001) // End MONITOR dynamic field statistics
(PID.TID 0000.0001) // =======================================================
 EXTERNAL_FIELDS_LOAD,         5 : iP,iLd,i0,i1=   12    1   12    1 ; Wght=  0.3333333333  0.6666666667
 EXTERNAL_FIELDS_LOAD: (fu0,1),fu,fv= -4.5368E-02 -3.5633E-02 -3.8878E-02 -6.1587E-02
 EXTERNAL_FIELDS_LOAD: SST,SSS,Q,E-P=  3.5491E-01  3.4481E+01  2.6532E+02  1.1107E-05
DEBUG_STATS_RL:          Uvel (THERMODYNAMICS)  min= -8.80766068842588E-02
DEBUG_STATS_RL:          Uvel (THERMODYNAMICS)  max=  1.07458751691557E-01
DEBUG_STATS_RL:          Uvel (THERMODYNAMICS) mean=  3.88908079919013E-03
DEBUG_STATS_RL:          Uvel (THERMODYNAMICS) S.D.=  1.20610308542430E-02
DEBUG_STATS_RL:          Vvel (THERMODYNAMICS)  min= -9.31903339668757E-02
DEBUG_STATS_RL:          Vvel (THERMODYNAMICS)  max=  8.75649237534168E-02
DEBUG_STATS_RL:          Vvel (THERMODYNAMICS) mean= -3.50603736824874E-03
DEBUG_STATS_RL:          Vvel (THERMODYNAMICS) S.D.=  1.33395239843013E-02
DEBUG_STATS_RL:          Wvel (THERMODYNAMICS)  min= -1.66971596924395E-04
DEBUG_STATS_RL:          Wvel (THERMODYNAMICS)  max=  2.28134240772311E-04
DEBUG_STATS_RL:          Wvel (THERMODYNAMICS) mean= -2.77630506778260E-07
DEBUG_STATS_RL:          Wvel (THERMODYNAMICS) S.D.=  2.16852326651173E-05
DEBUG_STATS_RL:         Theta (THERMODYNAMICS)  min= -1.90923445029676E+00
DEBUG_STATS_RL:         Theta (THERMODYNAMICS)  max=  2.98336472788507E+01
DEBUG_STATS_RL:         Theta (THERMODYNAMICS) mean=  3.20990548322874E+00
DEBUG_STATS_RL:         Theta (THERMODYNAMICS) S.D.=  5.84870477921760E+00
DEBUG_STATS_RL:          Salt (THERMODYNAMICS)  min=  1.00000000000000E-02
DEBUG_STATS_RL:          Salt (THERMODYNAMICS)  max=  3.74467093284978E+01
DEBUG_STATS_RL:          Salt (THERMODYNAMICS) mean=  1.88551418293679E+01
DEBUG_STATS_RL:          Salt (THERMODYNAMICS) S.D.=  1.73006119554277E+01
DEBUG_STATS_RL:         GtNm1 (THERMODYNAMICS)  min= -4.25465130336446E-06
DEBUG_STATS_RL:         GtNm1 (THERMODYNAMICS)  max=  2.63662836192849E-06
DEBUG_STATS_RL:         GtNm1 (THERMODYNAMICS) mean=  3.03385307085802E-08
DEBUG_STATS_RL:         GtNm1 (THERMODYNAMICS) S.D.=  2.50889412276817E-07
DEBUG_STATS_RL:         GsNm1 (THERMODYNAMICS)  min= -7.99614564989633E-07
DEBUG_STATS_RL:         GsNm1 (THERMODYNAMICS)  max=  4.97926165170417E-07
DEBUG_STATS_RL:         GsNm1 (THERMODYNAMICS) mean=  6.50531799806970E-10
DEBUG_STATS_RL:         GsNm1 (THERMODYNAMICS) S.D.=  1.98691956002790E-08
DEBUG_STATS_RL:                EtaN (DYNAMICS)  min= -1.46604109771584E+00
DEBUG_STATS_RL:                EtaN (DYNAMICS)  max=  1.35438685721791E+00
DEBUG_STATS_RL:                EtaN (DYNAMICS) mean= -1.01982216640652E-01
DEBUG_STATS_RL:                EtaN (DYNAMICS) S.D.=  6.27641940444911E-01
DEBUG_STATS_RL:                Uvel (DYNAMICS)  min= -8.80766068842588E-02
DEBUG_STATS_RL:                Uvel (DYNAMICS)  max=  1.07458751691557E-01
DEBUG_STATS_RL:                Uvel (DYNAMICS) mean=  3.88908079919013E-03
DEBUG_STATS_RL:                Uvel (DYNAMICS) S.D.=  1.20610308542430E-02
DEBUG_STATS_RL:                Vvel (DYNAMICS)  min= -9.31903339668757E-02
DEBUG_STATS_RL:                Vvel (DYNAMICS)  max=  8.75649237534168E-02
DEBUG_STATS_RL:                Vvel (DYNAMICS) mean= -3.50603736824874E-03
DEBUG_STATS_RL:                Vvel (DYNAMICS) S.D.=  1.33395239843013E-02
DEBUG_STATS_RL:                Wvel (DYNAMICS)  min= -1.66971596924395E-04
DEBUG_STATS_RL:                Wvel (DYNAMICS)  max=  2.28134240772311E-04
DEBUG_STATS_RL:                Wvel (DYNAMICS) mean= -2.77630506778260E-07
DEBUG_STATS_RL:                Wvel (DYNAMICS) S.D.=  2.16852326651173E-05
DEBUG_STATS_RL:               Theta (DYNAMICS)  min= -1.90923445029676E+00
DEBUG_STATS_RL:               Theta (DYNAMICS)  max=  2.98336472788507E+01
DEBUG_STATS_RL:               Theta (DYNAMICS) mean=  3.20990548322874E+00
DEBUG_STATS_RL:               Theta (DYNAMICS) S.D.=  5.84870477921760E+00
DEBUG_STATS_RL:                Salt (DYNAMICS)  min=  1.00000000000000E-02
DEBUG_STATS_RL:                Salt (DYNAMICS)  max=  3.74467093284978E+01
DEBUG_STATS_RL:                Salt (DYNAMICS) mean=  1.88551418293679E+01
DEBUG_STATS_RL:                Salt (DYNAMICS) S.D.=  1.73006119554277E+01
DEBUG_STATS_RL:                  Gu (DYNAMICS)  min= -9.14719410039311E-02
DEBUG_STATS_RL:                  Gu (DYNAMICS)  max=  1.16400152060223E-01
DEBUG_STATS_RL:                  Gu (DYNAMICS) mean=  3.62057140407526E-03
DEBUG_STATS_RL:                  Gu (DYNAMICS) S.D.=  1.41222899184216E-02
DEBUG_STATS_RL:                  Gv (DYNAMICS)  min= -8.38167559691534E-02
DEBUG_STATS_RL:                  Gv (DYNAMICS)  max=  8.92171775698602E-02
DEBUG_STATS_RL:                  Gv (DYNAMICS) mean= -2.09952333127359E-03
DEBUG_STATS_RL:                  Gv (DYNAMICS) S.D.=  1.35260256020678E-02
DEBUG_STATS_RL:               GuNm1 (DYNAMICS)  min= -7.67098937704391E-06
DEBUG_STATS_RL:               GuNm1 (DYNAMICS)  max=  7.83067858456582E-06
DEBUG_STATS_RL:               GuNm1 (DYNAMICS) mean= -3.81180094654618E-08
DEBUG_STATS_RL:               GuNm1 (DYNAMICS) S.D.=  1.28735152057691E-06
DEBUG_STATS_RL:               GvNm1 (DYNAMICS)  min= -1.10938178085208E-05
DEBUG_STATS_RL:               GvNm1 (DYNAMICS)  max=  1.66010819565892E-05
DEBUG_STATS_RL:               GvNm1 (DYNAMICS) mean=  7.80990134618669E-07
DEBUG_STATS_RL:               GvNm1 (DYNAMICS) S.D.=  2.78382185487676E-06
DEBUG_STATS_RL:               GtNm1 (DYNAMICS)  min= -4.25465130336446E-06
DEBUG_STATS_RL:               GtNm1 (DYNAMICS)  max=  2.63662836192849E-06
DEBUG_STATS_RL:               GtNm1 (DYNAMICS) mean=  3.03385307085802E-08
DEBUG_STATS_RL:               GtNm1 (DYNAMICS) S.D.=  2.50889412276817E-07
DEBUG_STATS_RL:               GsNm1 (DYNAMICS)  min= -7.99614564989633E-07
DEBUG_STATS_RL:               GsNm1 (DYNAMICS)  max=  4.97926165170417E-07
DEBUG_STATS_RL:               GsNm1 (DYNAMICS) mean=  6.50531799806970E-10
DEBUG_STATS_RL:               GsNm1 (DYNAMICS) S.D.=  1.98691956002790E-08
DEBUG_STATS_RL:    cg2d_b (SOLVE_FOR_PRESSURE)  min= -2.67262698621940E+04
DEBUG_STATS_RL:    cg2d_b (SOLVE_FOR_PRESSURE)  max=  1.69869021273888E+04
DEBUG_STATS_RL:    cg2d_b (SOLVE_FOR_PRESSURE) mean=  3.84428915865768E-01
DEBUG_STATS_RL:    cg2d_b (SOLVE_FOR_PRESSURE) S.D.=  4.27664619960252E+03
 cg2d: Sum(rhs),rhsMax =   3.32988084314344E-02  1.75545296215101E+00
(PID.TID 0000.0001)  cg2d: iter=     1 ; resid.=  7.86125617029455E-01
(PID.TID 0000.0001)  cg2d: iter=     2 ; resid.=  8.75816267887975E-01
(PID.TID 0000.0001)  cg2d: iter=     3 ; resid.=  7.92019784663366E-01
(PID.TID 0000.0001)  cg2d: iter=     4 ; resid.=  6.06322345197673E-01
(PID.TID 0000.0001)  cg2d: iter=     5 ; resid.=  6.35343324474716E-01
(PID.TID 0000.0001)  cg2d: iter=     6 ; resid.=  4.96986524793411E-01
(PID.TID 0000.0001)  cg2d: iter=     7 ; resid.=  3.63291686720457E-01
(PID.TID 0000.0001)  cg2d: iter=     8 ; resid.=  2.67077834373661E-01
(PID.TID 0000.0001)  cg2d: iter=     9 ; resid.=  2.39547508254574E-01
(PID.TID 0000.0001)  cg2d: iter=    10 ; resid.=  2.36073353107854E-01
(PID.TID 0000.0001)  cg2d: iter=    11 ; resid.=  1.98733512637081E-01
(PID.TID 0000.0001)  cg2d: iter=    12 ; resid.=  1.68812421993698E-01
(PID.TID 0000.0001)  cg2d: iter=    13 ; resid.=  1.51332038656274E-01
(PID.TID 0000.0001)  cg2d: iter=    14 ; resid.=  1.30665763591319E-01
(PID.TID 0000.0001)  cg2d: iter=    15 ; resid.=  1.17401443344510E-01
(PID.TID 0000.0001)  cg2d: iter=    16 ; resid.=  1.08973640978904E-01
(PID.TID 0000.0001)  cg2d: iter=    17 ; resid.=  9.27440292187678E-02
(PID.TID 0000.0001)  cg2d: iter=    18 ; resid.=  7.69066880086379E-02
(PID.TID 0000.0001)  cg2d: iter=    19 ; resid.=  5.84358545684882E-02
(PID.TID 0000.0001)  cg2d: iter=    20 ; resid.=  4.42645458261001E-02
(PID.TID 0000.0001)  cg2d: iter=    21 ; resid.=  3.82461727327967E-02
(PID.TID 0000.0001)  cg2d: iter=    22 ; resid.=  3.39286391559276E-02
(PID.TID 0000.0001)  cg2d: iter=    23 ; resid.=  2.57479121217910E-02
(PID.TID 0000.0001)  cg2d: iter=    24 ; resid.=  2.29342457647173E-02
(PID.TID 0000.0001)  cg2d: iter=    25 ; resid.=  2.06161497769497E-02
(PID.TID 0000.0001)  cg2d: iter=    26 ; resid.=  1.67158126983397E-02
(PID.TID 0000.0001)  cg2d: iter=    27 ; resid.=  1.38398541672768E-02
(PID.TID 0000.0001)  cg2d: iter=    28 ; resid.=  1.13890596367631E-02
(PID.TID 0000.0001)  cg2d: iter=    29 ; resid.=  9.44620124644734E-03
(PID.TID 0000.0001)  cg2d: iter=    30 ; resid.=  7.81420485351862E-03
(PID.TID 0000.0001)  cg2d: iter=    31 ; resid.=  6.32821788263809E-03
(PID.TID 0000.0001)  cg2d: iter=    32 ; resid.=  4.83537385798354E-03
(PID.TID 0000.0001)  cg2d: iter=    33 ; resid.=  4.18255003226095E-03
(PID.TID 0000.0001)  cg2d: iter=    34 ; resid.=  3.79764426004295E-03
(PID.TID 0000.0001)  cg2d: iter=    35 ; resid.=  3.05180185696738E-03
(PID.TID 0000.0001)  cg2d: iter=    36 ; resid.=  2.77785024835437E-03
(PID.TID 0000.0001)  cg2d: iter=    37 ; resid.=  2.21830934031700E-03
(PID.TID 0000.0001)  cg2d: iter=    38 ; resid.=  1.65266410826992E-03
(PID.TID 0000.0001)  cg2d: iter=    39 ; resid.=  1.27154115237431E-03
(PID.TID 0000.0001)  cg2d: iter=    40 ; resid.=  1.07481655672888E-03
(PID.TID 0000.0001)  cg2d: iter=    41 ; resid.=  8.33254326953314E-04
(PID.TID 0000.0001)  cg2d: iter=    42 ; resid.=  7.53549739003496E-04
(PID.TID 0000.0001)  cg2d: iter=    43 ; resid.=  5.92716362548664E-04
(PID.TID 0000.0001)  cg2d: iter=    44 ; resid.=  4.86279648690200E-04
(PID.TID 0000.0001)  cg2d: iter=    45 ; resid.=  4.41561302974882E-04
(PID.TID 0000.0001)  cg2d: iter=    46 ; resid.=  3.40083816873120E-04
(PID.TID 0000.0001)  cg2d: iter=    47 ; resid.=  2.49276616472393E-04
(PID.TID 0000.0001)  cg2d: iter=    48 ; resid.=  2.16187524455322E-04
(PID.TID 0000.0001)  cg2d: iter=    49 ; resid.=  1.96369100501170E-04
(PID.TID 0000.0001)  cg2d: iter=    50 ; resid.=  1.68243092722107E-04
(PID.TID 0000.0001)  cg2d: iter=    51 ; resid.=  1.46681998443464E-04
(PID.TID 0000.0001)  cg2d: iter=    52 ; resid.=  1.22097729918222E-04
(PID.TID 0000.0001)  cg2d: iter=    53 ; resid.=  1.01562033036672E-04
(PID.TID 0000.0001)  cg2d: iter=    54 ; resid.=  7.94774430360470E-05
(PID.TID 0000.0001)  cg2d: iter=    55 ; resid.=  6.13439519221517E-05
(PID.TID 0000.0001)  cg2d: iter=    56 ; resid.=  4.70937705309883E-05
(PID.TID 0000.0001)  cg2d: iter=    57 ; resid.=  3.63444087451920E-05
(PID.TID 0000.0001)  cg2d: iter=    58 ; resid.=  2.97490945890249E-05
(PID.TID 0000.0001)  cg2d: iter=    59 ; resid.=  2.30767846804813E-05
(PID.TID 0000.0001)  cg2d: iter=    60 ; resid.=  1.67492634935125E-05
(PID.TID 0000.0001)  cg2d: iter=    61 ; resid.=  1.35327756331597E-05
(PID.TID 0000.0001)  cg2d: iter=    62 ; resid.=  1.07433436150762E-05
(PID.TID 0000.0001)  cg2d: iter=    63 ; resid.=  9.15723664843663E-06
(PID.TID 0000.0001)  cg2d: iter=    64 ; resid.=  7.89693893275410E-06
(PID.TID 0000.0001)  cg2d: iter=    65 ; resid.=  6.50834358215180E-06
(PID.TID 0000.0001)  cg2d: iter=    66 ; resid.=  5.04632699893300E-06
(PID.TID 0000.0001)  cg2d: iter=    67 ; resid.=  4.53091374230674E-06
(PID.TID 0000.0001)  cg2d: iter=    68 ; resid.=  3.81098560544255E-06
(PID.TID 0000.0001)  cg2d: iter=    69 ; resid.=  2.82212382798721E-06
(PID.TID 0000.0001)  cg2d: iter=    70 ; resid.=  2.35524043969916E-06
(PID.TID 0000.0001)  cg2d: iter=    71 ; resid.=  1.89993715438893E-06
(PID.TID 0000.0001)  cg2d: iter=    72 ; resid.=  1.44966435240094E-06
(PID.TID 0000.0001)  cg2d: iter=    73 ; resid.=  1.16938546415346E-06
(PID.TID 0000.0001)  cg2d: iter=    74 ; resid.=  9.98249635349183E-07
(PID.TID 0000.0001)  cg2d: iter=    75 ; resid.=  8.16323467184236E-07
(PID.TID 0000.0001)  cg2d: iter=    76 ; resid.=  7.18411942178572E-07
(PID.TID 0000.0001)  cg2d: iter=    77 ; resid.=  6.37641419149614E-07
(PID.TID 0000.0001)  cg2d: iter=    78 ; resid.=  5.34165858171796E-07
(PID.TID 0000.0001)  cg2d: iter=    79 ; resid.=  4.56698573497731E-07
(PID.TID 0000.0001)  cg2d: iter=    80 ; resid.=  3.80106861948314E-07
(PID.TID 0000.0001)  cg2d: iter=    81 ; resid.=  3.18015489692231E-07
(PID.TID 0000.0001)  cg2d: iter=    82 ; resid.=  2.38422192876144E-07
(PID.TID 0000.0001)  cg2d: iter=    83 ; resid.=  2.12416497815834E-07
(PID.TID 0000.0001)  cg2d: iter=    84 ; resid.=  1.88903943741832E-07
(PID.TID 0000.0001)  cg2d: iter=    85 ; resid.=  1.58872097349577E-07
(PID.TID 0000.0001)  cg2d: iter=    86 ; resid.=  1.33290560025061E-07
(PID.TID 0000.0001)  cg2d: iter=    87 ; resid.=  1.04906925777485E-07
(PID.TID 0000.0001)  cg2d: iter=    88 ; resid.=  8.93927903644931E-08
(PID.TID 0000.0001)  cg2d: iter=    89 ; resid.=  7.68394773469048E-08
(PID.TID 0000.0001)  cg2d: iter=    90 ; resid.=  5.73150890981255E-08
(PID.TID 0000.0001)  cg2d: iter=    91 ; resid.=  4.25593998549907E-08
(PID.TID 0000.0001)  cg2d: iter=    92 ; resid.=  3.07691891850228E-08
(PID.TID 0000.0001)  cg2d: iter=    93 ; resid.=  2.27979784280950E-08
(PID.TID 0000.0001)  cg2d: iter=    94 ; resid.=  1.58877590247255E-08
(PID.TID 0000.0001)  cg2d: iter=    95 ; resid.=  1.17792847347111E-08
(PID.TID 0000.0001)  cg2d: iter=    96 ; resid.=  9.59700837577494E-09
(PID.TID 0000.0001)  cg2d: iter=    97 ; resid.=  7.71650048823684E-09
(PID.TID 0000.0001)  cg2d: iter=    98 ; resid.=  6.35357337181394E-09
(PID.TID 0000.0001)  cg2d: iter=    99 ; resid.=  5.64039476532004E-09
(PID.TID 0000.0001)  cg2d: iter=   100 ; resid.=  4.96259053472413E-09
(PID.TID 0000.0001)  cg2d: iter=   101 ; resid.=  4.04304409724738E-09
(PID.TID 0000.0001)  cg2d: iter=   102 ; resid.=  3.30362401460015E-09
(PID.TID 0000.0001)  cg2d: iter=   103 ; resid.=  2.65368489203651E-09
(PID.TID 0000.0001)  cg2d: iter=   104 ; resid.=  2.20631115181888E-09
(PID.TID 0000.0001)  cg2d: iter=   105 ; resid.=  1.79606917467865E-09
(PID.TID 0000.0001)  cg2d: iter=   106 ; resid.=  1.40563512139738E-09
(PID.TID 0000.0001)  cg2d: iter=   107 ; resid.=  1.09670421745915E-09
(PID.TID 0000.0001)  cg2d: iter=   108 ; resid.=  8.70212271224861E-10
(PID.TID 0000.0001)  cg2d: iter=   109 ; resid.=  7.24198655282550E-10
(PID.TID 0000.0001)  cg2d: iter=   110 ; resid.=  5.92668105657580E-10
(PID.TID 0000.0001)  cg2d: iter=   111 ; resid.=  4.62629155697788E-10
(PID.TID 0000.0001)  cg2d: iter=   112 ; resid.=  3.31660584176149E-10
(PID.TID 0000.0001)  cg2d: iter=   113 ; resid.=  2.73092529783640E-10
(PID.TID 0000.0001)  cg2d: iter=   114 ; resid.=  2.08707568044864E-10
(PID.TID 0000.0001)  cg2d: iter=   115 ; resid.=  1.64656531852758E-10
(PID.TID 0000.0001)  cg2d: iter=   116 ; resid.=  1.15120939221410E-10
(PID.TID 0000.0001)  cg2d: iter=   117 ; resid.=  8.21759389660300E-11
(PID.TID 0000.0001)  cg2d: iter=   118 ; resid.=  6.05825467708315E-11
(PID.TID 0000.0001)  cg2d: iter=   119 ; resid.=  4.33526976586657E-11
(PID.TID 0000.0001)  cg2d: iter=   120 ; resid.=  3.23296707514931E-11
(PID.TID 0000.0001)  cg2d: iter=   121 ; resid.=  2.32385977921916E-11
(PID.TID 0000.0001)  cg2d: iter=   122 ; resid.=  1.83124591718412E-11
(PID.TID 0000.0001)  cg2d: iter=   123 ; resid.=  1.31821877913696E-11
(PID.TID 0000.0001)  cg2d: iter=   124 ; resid.=  1.00147608355159E-11
(PID.TID 0000.0001)  cg2d: iter=   125 ; resid.=  7.25156751739513E-12
(PID.TID 0000.0001)  cg2d: iter=   126 ; resid.=  5.09703683513941E-12
(PID.TID 0000.0001)  cg2d: iter=   127 ; resid.=  3.27660411219174E-12
(PID.TID 0000.0001)  cg2d: iter=   128 ; resid.=  2.32181813140299E-12
(PID.TID 0000.0001)  cg2d: iter=   129 ; resid.=  1.77054031350671E-12
(PID.TID 0000.0001)  cg2d: iter=   130 ; resid.=  1.25265159750402E-12
(PID.TID 0000.0001)  cg2d: iter=   131 ; resid.=  9.42103345687666E-13
(PID.TID 0000.0001)  cg2d: iter=   132 ; resid.=  7.59046761863685E-13
(PID.TID 0000.0001)  cg2d: iter=   133 ; resid.=  6.72748214850834E-13
(PID.TID 0000.0001)  cg2d: iter=   134 ; resid.=  5.59414339929802E-13
(PID.TID 0000.0001)  cg2d: iter=   135 ; resid.=  4.15163017270838E-13
(PID.TID 0000.0001)  cg2d: iter=   136 ; resid.=  2.92233561244873E-13
(PID.TID 0000.0001)  cg2d: iter=   137 ; resid.=  2.16421253434511E-13
(PID.TID 0000.0001)  cg2d: iter=   138 ; resid.=  1.67057827432532E-13
(PID.TID 0000.0001)  cg2d: iter=   139 ; resid.=  1.25338981492516E-13
(PID.TID 0000.0001)  cg2d: iter=   140 ; resid.=  8.58317119605968E-14
DEBUG_STATS_RL:    cg2d_x (SOLVE_FOR_PRESSURE)  min= -1.26318795911288E+01
DEBUG_STATS_RL:    cg2d_x (SOLVE_FOR_PRESSURE)  max=  1.79513542354615E+01
DEBUG_STATS_RL:    cg2d_x (SOLVE_FOR_PRESSURE) mean= -8.49466061621505E-01
DEBUG_STATS_RL:    cg2d_x (SOLVE_FOR_PRESSURE) S.D.=  5.80144328068752E+00
(PID.TID 0000.0001)      cg2d_init_res =   8.87089811225371E-01
(PID.TID 0000.0001)      cg2d_iters(min,last) =      -1     140
(PID.TID 0000.0001)      cg2d_last_res =   8.58317119605968E-14
(PID.TID 0000.0001) // =======================================================
(PID.TID 0000.0001) // Begin MONITOR dynamic field statistics
(PID.TID 0000.0001) // =======================================================
(PID.TID 0000.0001) %MON time_tsnumber                =                     6
(PID.TID 0000.0001) %MON time_secondsf                =   5.1840000000000E+05
(PID.TID 0000.0001) %MON dynstat_eta_max              =   1.8299035917902E+00
(PID.TID 0000.0001) %MON dynstat_eta_min              =  -1.2876533732035E+00
(PID.TID 0000.0001) %MON dynstat_eta_mean             =  -4.0110390609409E-04
(PID.TID 0000.0001) %MON dynstat_eta_sd               =   5.7975293768576E-01
(PID.TID 0000.0001) %MON dynstat_eta_del2             =   2.3596078092622E-03
(PID.TID 0000.0001) %MON dynstat_uvel_max             =   1.2167744418611E-01
(PID.TID 0000.0001) %MON dynstat_uvel_min             =  -9.9312205846455E-02
(PID.TID 0000.0001) %MON dynstat_uvel_mean            =   1.9559320647413E-03
(PID.TID 0000.0001) %MON dynstat_uvel_sd              =   8.4601730122178E-03
(PID.TID 0000.0001) %MON dynstat_uvel_del2            =   7.4940190361547E-05
(PID.TID 0000.0001) %MON dynstat_vvel_max             =   7.6527249551955E-02
(PID.TID 0000.0001) %MON dynstat_vvel_min             =  -1.0399532939354E-01
(PID.TID 0000.0001) %MON dynstat_vvel_mean            =  -1.5312723185350E-03
(PID.TID 0000.0001) %MON dynstat_vvel_sd              =   9.8113738310227E-03
(PID.TID 0000.0001) %MON dynstat_vvel_del2            =   1.0055169103755E-04
(PID.TID 0000.0001) %MON dynstat_wvel_max             =   2.3159007557417E-04
(PID.TID 0000.0001) %MON dynstat_wvel_min             =  -1.7581197198769E-04
(PID.TID 0000.0001) %MON dynstat_wvel_mean            =   1.8258364038158E-22
(PID.TID 0000.0001) %MON dynstat_wvel_sd              =   2.4309628611694E-05
(PID.TID 0000.0001) %MON dynstat_wvel_del2            =   3.2169696197663E-07
(PID.TID 0000.0001) %MON dynstat_theta_max            =   2.9833647278851E+01
(PID.TID 0000.0001) %MON dynstat_theta_min            =  -1.9092344502968E+00
(PID.TID 0000.0001) %MON dynstat_theta_mean           =   3.6294390496953E+00
(PID.TID 0000.0001) %MON dynstat_theta_sd             =   4.4155942134867E+00
(PID.TID 0000.0001) %MON dynstat_theta_del2           =   5.3342794663409E-03
(PID.TID 0000.0001) %MON dynstat_salt_max             =   3.7446709328498E+01
(PID.TID 0000.0001) %MON dynstat_salt_min             =   2.9777132124696E+01
(PID.TID 0000.0001) %MON dynstat_salt_mean            =   3.4727981505041E+01
(PID.TID 0000.0001) %MON dynstat_salt_sd              =   2.9613281204117E-01
(PID.TID 0000.0001) %MON dynstat_salt_del2            =   1.0127599285510E-03
(PID.TID 0000.0001) %MON dynstat_sst_max              =   2.9833647278851E+01
(PID.TID 0000.0001) %MON dynstat_sst_min              =  -1.9092344502968E+00
(PID.TID 0000.0001) %MON dynstat_sst_mean             =   1.8560443844569E+01
(PID.TID 0000.0001) %MON dynstat_sst_sd               =   9.1222278124720E+00
(PID.TID 0000.0001) %MON dynstat_sst_del2             =   2.6360415871318E-02
(PID.TID 0000.0001) %MON dynstat_sss_max              =   3.7446709328498E+01
(PID.TID 0000.0001) %MON dynstat_sss_min              =   2.9777132124696E+01
(PID.TID 0000.0001) %MON dynstat_sss_mean             =   3.4861940469408E+01
(PID.TID 0000.0001) %MON dynstat_sss_sd               =   9.6570103924578E-01
(PID.TID 0000.0001) %MON dynstat_sss_del2             =   8.0087333721414E-03
(PID.TID 0000.0001) %MON forcing_qnet_max             =   4.3113174438477E+02
(PID.TID 0000.0001) %MON forcing_qnet_min             =  -1.8469117228190E+02
(PID.TID 0000.0001) %MON forcing_qnet_mean            =  -1.6637645559275E+01
(PID.TID 0000.0001) %MON forcing_qnet_sd              =   1.1179629855085E+02
(PID.TID 0000.0001) %MON forcing_qnet_del2            =   9.9775446314289E-01
(PID.TID 0000.0001) %MON forcing_qsw_max              =   0.0000000000000E+00
(PID.TID 0000.0001) %MON forcing_qsw_min              =   0.0000000000000E+00
(PID.TID 0000.0001) %MON forcing_qsw_mean             =   0.0000000000000E+00
(PID.TID 0000.0001) %MON forcing_qsw_sd               =   0.0000000000000E+00
(PID.TID 0000.0001) %MON forcing_qsw_del2             =   0.0000000000000E+00
(PID.TID 0000.0001) %MON forcing_empmr_max            =   8.1964593334760E-05
(PID.TID 0000.0001) %MON forcing_empmr_min            =  -7.2853588051203E-05
(PID.TID 0000.0001) %MON forcing_empmr_mean           =   8.2523948465558E-07
(PID.TID 0000.0001) %MON forcing_empmr_sd             =   2.8025041303087E-05
(PID.TID 0000.0001) %MON forcing_empmr_del2           =   3.6259598317743E-07
(PID.TID 0000.0001) %MON forcing_fu_max               =   2.7059724926949E-01
(PID.TID 0000.0001) %MON forcing_fu_min               =  -1.6274636983871E-01
(PID.TID 0000.0001) %MON forcing_fu_mean              =   1.6078663362938E-02
(PID.TID 0000.0001) %MON forcing_fu_sd                =   9.0186169351879E-02
(PID.TID 0000.0001) %MON forcing_fu_del2              =   6.6508467741693E-04
(PID.TID 0000.0001) %MON forcing_fv_max               =   2.1432226896286E-01
(PID.TID 0000.0001) %MON forcing_fv_min               =  -1.8398347496986E-01
(PID.TID 0000.0001) %MON forcing_fv_mean              =  -5.9965230081131E-03
(PID.TID 0000.0001) %MON forcing_fv_sd                =   4.5826577347902E-02
(PID.TID 0000.0001) %MON forcing_fv_del2              =   4.5109215240509E-04
(PID.TID 0000.0001) %MON trAdv_CFL_u_max              =   3.5526159108383E-02
(PID.TID 0000.0001) %MON trAdv_CFL_v_max              =   1.7528980205173E-02
(PID.TID 0000.0001) %MON trAdv_CFL_w_max              =   6.1345918000770E-02
(PID.TID 0000.0001) %MON advcfl_uvel_max              =   4.0218729274974E-02
(PID.TID 0000.0001) %MON advcfl_vvel_max              =   2.0204624616604E-02
(PID.TID 0000.0001) %MON advcfl_wvel_max              =   7.4209152431491E-02
(PID.TID 0000.0001) %MON advcfl_W_hf_max              =   8.3973514593530E-02
(PID.TID 0000.0001) %MON pe_b_mean                    =   4.3009790185114E-04
(PID.TID 0000.0001) %MON ke_max                       =   7.7604411998962E-03
(PID.TID 0000.0001) %MON ke_mean                      =   7.8524838335355E-05
(PID.TID 0000.0001) %MON ke_vol                       =   1.3226782436723E+18
(PID.TID 0000.0001) %MON vort_r_min                   =  -4.0742627654482E-07
(PID.TID 0000.0001) %MON vort_r_max                   =   3.9202259493160E-07
(PID.TID 0000.0001) %MON vort_a_mean                  =  -2.5274807293628E-05
(PID.TID 0000.0001) %MON vort_a_sd                    =   7.3604741933968E-05
(PID.TID 0000.0001) %MON vort_p_mean                  =  -3.1845655668658E-05
(PID.TID 0000.0001) %MON vort_p_sd                    =   1.3162418175669E-04
(PID.TID 0000.0001) %MON surfExpan_theta_mean         =  -5.5052046975300E-06
(PID.TID 0000.0001) %MON surfExpan_salt_mean          =  -2.8979358574180E-07
(PID.TID 0000.0001) // =======================================================
(PID.TID 0000.0001) // End MONITOR dynamic field statistics
(PID.TID 0000.0001) // =======================================================
 EXTERNAL_FIELDS_LOAD,         6 : iP,iLd,i0,i1=   12    1   12    1 ; Wght=  0.3000000000  0.7000000000
 EXTERNAL_FIELDS_LOAD: (fu0,1),fu,fv= -4.5368E-02 -3.5633E-02 -3.8553E-02 -6.1154E-02
 EXTERNAL_FIELDS_LOAD: SST,SSS,Q,E-P=  4.1526E-01  3.4504E+01  2.6537E+02  1.1160E-05
DEBUG_STATS_RL:          Uvel (THERMODYNAMICS)  min= -9.93122058464546E-02
DEBUG_STATS_RL:          Uvel (THERMODYNAMICS)  max=  1.21677444186107E-01
DEBUG_STATS_RL:          Uvel (THERMODYNAMICS) mean=  4.65539113035979E-03
DEBUG_STATS_RL:          Uvel (THERMODYNAMICS) S.D.=  1.38914361595023E-02
DEBUG_STATS_RL:          Vvel (THERMODYNAMICS)  min= -1.03995329393539E-01
DEBUG_STATS_RL:          Vvel (THERMODYNAMICS)  max=  7.65272495519552E-02
DEBUG_STATS_RL:          Vvel (THERMODYNAMICS) mean= -3.24223237132012E-03
DEBUG_STATS_RL:          Vvel (THERMODYNAMICS) S.D.=  1.44711053450132E-02
DEBUG_STATS_RL:          Wvel (THERMODYNAMICS)  min= -1.75811971987691E-04
DEBUG_STATS_RL:          Wvel (THERMODYNAMICS)  max=  2.31590075574169E-04
DEBUG_STATS_RL:          Wvel (THERMODYNAMICS) mean= -4.89141195755966E-07
DEBUG_STATS_RL:          Wvel (THERMODYNAMICS) S.D.=  2.30018398791683E-05
DEBUG_STATS_RL:         Theta (THERMODYNAMICS)  min= -1.91097137731763E+00
DEBUG_STATS_RL:         Theta (THERMODYNAMICS)  max=  2.98474894135895E+01
DEBUG_STATS_RL:         Theta (THERMODYNAMICS) mean=  3.21109713940499E+00
DEBUG_STATS_RL:         Theta (THERMODYNAMICS) S.D.=  5.84979896751401E+00
DEBUG_STATS_RL:          Salt (THERMODYNAMICS)  min=  1.00000000000000E-02
DEBUG_STATS_RL:          Salt (THERMODYNAMICS)  max=  3.74442037076583E+01
DEBUG_STATS_RL:          Salt (THERMODYNAMICS) mean=  1.88551585232095E+01
DEBUG_STATS_RL:          Salt (THERMODYNAMICS) S.D.=  1.73006287252486E+01
DEBUG_STATS_RL:         GtNm1 (THERMODYNAMICS)  min= -4.46663218778127E-06
DEBUG_STATS_RL:         GtNm1 (THERMODYNAMICS)  max=  3.07475006215407E-06
DEBUG_STATS_RL:         GtNm1 (THERMODYNAMICS) mean=  2.79535005650986E-08
DEBUG_STATS_RL:         GtNm1 (THERMODYNAMICS) S.D.=  2.58830581786048E-07
DEBUG_STATS_RL:         GsNm1 (THERMODYNAMICS)  min= -8.36283837556373E-07
DEBUG_STATS_RL:         GsNm1 (THERMODYNAMICS)  max=  5.71462073355635E-07
DEBUG_STATS_RL:         GsNm1 (THERMODYNAMICS) mean=  4.14102416340009E-10
DEBUG_STATS_RL:         GsNm1 (THERMODYNAMICS) S.D.=  2.09335034218803E-08
DEBUG_STATS_RL:                EtaN (DYNAMICS)  min= -1.28765337320352E+00
DEBUG_STATS_RL:                EtaN (DYNAMICS)  max=  1.82990359179016E+00
DEBUG_STATS_RL:                EtaN (DYNAMICS) mean= -8.65918513375637E-02
DEBUG_STATS_RL:                EtaN (DYNAMICS) S.D.=  5.91380558683746E-01
DEBUG_STATS_RL:                Uvel (DYNAMICS)  min= -9.93122058464546E-02
DEBUG_STATS_RL:                Uvel (DYNAMICS)  max=  1.21677444186107E-01
DEBUG_STATS_RL:                Uvel (DYNAMICS) mean=  4.65539113035979E-03
DEBUG_STATS_RL:                Uvel (DYNAMICS) S.D.=  1.38914361595023E-02
DEBUG_STATS_RL:                Vvel (DYNAMICS)  min= -1.03995329393539E-01
DEBUG_STATS_RL:                Vvel (DYNAMICS)  max=  7.65272495519552E-02
DEBUG_STATS_RL:                Vvel (DYNAMICS) mean= -3.24223237132012E-03
DEBUG_STATS_RL:                Vvel (DYNAMICS) S.D.=  1.44711053450132E-02
DEBUG_STATS_RL:                Wvel (DYNAMICS)  min= -1.75811971987691E-04
DEBUG_STATS_RL:                Wvel (DYNAMICS)  max=  2.31590075574169E-04
DEBUG_STATS_RL:                Wvel (DYNAMICS) mean= -4.89141195755966E-07
DEBUG_STATS_RL:                Wvel (DYNAMICS) S.D.=  2.30018398791683E-05
DEBUG_STATS_RL:               Theta (DYNAMICS)  min= -1.91097137731763E+00
DEBUG_STATS_RL:               Theta (DYNAMICS)  max=  2.98474894135895E+01
DEBUG_STATS_RL:               Theta (DYNAMICS) mean=  3.21109713940499E+00
DEBUG_STATS_RL:               Theta (DYNAMICS) S.D.=  5.84979896751401E+00
DEBUG_STATS_RL:                Salt (DYNAMICS)  min=  1.00000000000000E-02
DEBUG_STATS_RL:                Salt (DYNAMICS)  max=  3.74442037076583E+01
DEBUG_STATS_RL:                Salt (DYNAMICS) mean=  1.88551585232095E+01
DEBUG_STATS_RL:                Salt (DYNAMICS) S.D.=  1.73006287252486E+01
DEBUG_STATS_RL:                  Gu (DYNAMICS)  min= -1.02171352606355E-01
DEBUG_STATS_RL:                  Gu (DYNAMICS)  max=  1.29520379296704E-01
DEBUG_STATS_RL:                  Gu (DYNAMICS) mean=  4.16112603472830E-03
DEBUG_STATS_RL:                  Gu (DYNAMICS) S.D.=  1.59063382053228E-02
DEBUG_STATS_RL:                  Gv (DYNAMICS)  min= -9.11991578567051E-02
DEBUG_STATS_RL:                  Gv (DYNAMICS)  max=  7.76715758865491E-02
DEBUG_STATS_RL:                  Gv (DYNAMICS) mean= -1.78857566110337E-03
DEBUG_STATS_RL:                  Gv (DYNAMICS) S.D.=  1.42824629247347E-02
DEBUG_STATS_RL:               GuNm1 (DYNAMICS)  min= -7.41817084421852E-06
DEBUG_STATS_RL:               GuNm1 (DYNAMICS)  max=  7.69187209226298E-06
DEBUG_STATS_RL:               GuNm1 (DYNAMICS) mean= -3.59503635741939E-08
DEBUG_STATS_RL:               GuNm1 (DYNAMICS) S.D.=  1.25047423693046E-06
DEBUG_STATS_RL:               GvNm1 (DYNAMICS)  min= -1.07131885192295E-05
DEBUG_STATS_RL:               GvNm1 (DYNAMICS)  max=  1.63010887197705E-05
DEBUG_STATS_RL:               GvNm1 (DYNAMICS) mean=  7.80896262831570E-07
DEBUG_STATS_RL:               GvNm1 (DYNAMICS) S.D.=  2.74882743380410E-06
DEBUG_STATS_RL:               GtNm1 (DYNAMICS)  min= -4.46663218778127E-06
DEBUG_STATS_RL:               GtNm1 (DYNAMICS)  max=  3.07475006215407E-06
DEBUG_STATS_RL:               GtNm1 (DYNAMICS) mean=  2.79535005650986E-08
DEBUG_STATS_RL:               GtNm1 (DYNAMICS) S.D.=  2.58830581786048E-07
DEBUG_STATS_RL:               GsNm1 (DYNAMICS)  min= -8.36283837556373E-07
DEBUG_STATS_RL:               GsNm1 (DYNAMICS)  max=  5.71462073355635E-07
DEBUG_STATS_RL:               GsNm1 (DYNAMICS) mean=  4.14102416340009E-10
DEBUG_STATS_RL:               GsNm1 (DYNAMICS) S.D.=  2.09335034218803E-08
DEBUG_STATS_RL:    cg2d_b (SOLVE_FOR_PRESSURE)  min= -2.34663947773120E+04
DEBUG_STATS_RL:    cg2d_b (SOLVE_FOR_PRESSURE)  max=  1.63940943666971E+04
DEBUG_STATS_RL:    cg2d_b (SOLVE_FOR_PRESSURE) mean=  4.51236202110073E-01
DEBUG_STATS_RL:    cg2d_b (SOLVE_FOR_PRESSURE) S.D.=  4.06657681131208E+03
 cg2d: Sum(rhs),rhsMax =   4.45152234843574E-02  1.54133563850259E+00
(PID.TID 0000.0001)  cg2d: iter=     1 ; resid.=  6.38824280736544E-01
(PID.TID 0000.0001)  cg2d: iter=     2 ; resid.=  6.19892679796409E-01
(PID.TID 0000.0001)  cg2d: iter=     3 ; resid.=  6.06885572331411E-01
(PID.TID 0000.0001)  cg2d: iter=     4 ; resid.=  4.63267163154880E-01
(PID.TID 0000.0001)  cg2d: iter=     5 ; resid.=  4.77533849421110E-01
(PID.TID 0000.0001)  cg2d: iter=     6 ; resid.=  3.99547386976944E-01
(PID.TID 0000.0001)  cg2d: iter=     7 ; resid.=  2.96408769303771E-01
(PID.TID 0000.0001)  cg2d: iter=     8 ; resid.=  2.02854584603920E-01
(PID.TID 0000.0001)  cg2d: iter=     9 ; resid.=  1.59766412791591E-01
(PID.TID 0000.0001)  cg2d: iter=    10 ; resid.=  1.59015826775286E-01
(PID.TID 0000.0001)  cg2d: iter=    11 ; resid.=  1.44923331146589E-01
(PID.TID 0000.0001)  cg2d: iter=    12 ; resid.=  1.20592094527243E-01
(PID.TID 0000.0001)  cg2d: iter=    13 ; resid.=  1.02997535501836E-01
(PID.TID 0000.0001)  cg2d: iter=    14 ; resid.=  8.65446465678248E-02
(PID.TID 0000.0001)  cg2d: iter=    15 ; resid.=  7.63546839720711E-02
(PID.TID 0000.0001)  cg2d: iter=    16 ; resid.=  7.13877552411559E-02
(PID.TID 0000.0001)  cg2d: iter=    17 ; resid.=  6.05276081504404E-02
(PID.TID 0000.0001)  cg2d: iter=    18 ; resid.=  5.09799337830477E-02
(PID.TID 0000.0001)  cg2d: iter=    19 ; resid.=  4.11033895851535E-02
(PID.TID 0000.0001)  cg2d: iter=    20 ; resid.=  3.09472830419911E-02
(PID.TID 0000.0001)  cg2d: iter=    21 ; resid.=  2.47091252241390E-02
(PID.TID 0000.0001)  cg2d: iter=    22 ; resid.=  1.98402571125825E-02
(PID.TID 0000.0001)  cg2d: iter=    23 ; resid.=  1.42880401833367E-02
(PID.TID 0000.0001)  cg2d: iter=    24 ; resid.=  1.21986509634492E-02
(PID.TID 0000.0001)  cg2d: iter=    25 ; resid.=  1.08257509829488E-02
(PID.TID 0000.0001)  cg2d: iter=    26 ; resid.=  9.38581625555511E-03
(PID.TID 0000.0001)  cg2d: iter=    27 ; resid.=  7.90781787974864E-03
(PID.TID 0000.0001)  cg2d: iter=    28 ; resid.=  6.97375706097995E-03
(PID.TID 0000.0001)  cg2d: iter=    29 ; resid.=  6.08552250224703E-03
(PID.TID 0000.0001)  cg2d: iter=    30 ; resid.=  5.44429991629058E-03
(PID.TID 0000.0001)  cg2d: iter=    31 ; resid.=  4.53068743751830E-03
(PID.TID 0000.0001)  cg2d: iter=    32 ; resid.=  3.42450736069276E-03
(PID.TID 0000.0001)  cg2d: iter=    33 ; resid.=  2.96764694473184E-03
(PID.TID 0000.0001)  cg2d: iter=    34 ; resid.=  2.77750579588033E-03
(PID.TID 0000.0001)  cg2d: iter=    35 ; resid.=  2.12962474364145E-03
(PID.TID 0000.0001)  cg2d: iter=    36 ; resid.=  1.82661841052205E-03
(PID.TID 0000.0001)  cg2d: iter=    37 ; resid.=  1.58592971949312E-03
(PID.TID 0000.0001)  cg2d: iter=    38 ; resid.=  1.37949008676642E-03
(PID.TID 0000.0001)  cg2d: iter=    39 ; resid.=  1.14065193798073E-03
(PID.TID 0000.0001)  cg2d: iter=    40 ; resid.=  9.75918541517107E-04
(PID.TID 0000.0001)  cg2d: iter=    41 ; resid.=  7.37483395640612E-04
(PID.TID 0000.0001)  cg2d: iter=    42 ; resid.=  6.57896221886495E-04
(PID.TID 0000.0001)  cg2d: iter=    43 ; resid.=  5.35574718452972E-04
(PID.TID 0000.0001)  cg2d: iter=    44 ; resid.=  4.13830025558679E-04
(PID.TID 0000.0001)  cg2d: iter=    45 ; resid.=  3.43846502203401E-04
(PID.TID 0000.0001)  cg2d: iter=    46 ; resid.=  2.74572601004562E-04
(PID.TID 0000.0001)  cg2d: iter=    47 ; resid.=  2.08445569016876E-04
(PID.TID 0000.0001)  cg2d: iter=    48 ; resid.=  1.69198184795836E-04
(PID.TID 0000.0001)  cg2d: iter=    49 ; resid.=  1.43775117924602E-04
(PID.TID 0000.0001)  cg2d: iter=    50 ; resid.=  1.17245015925317E-04
(PID.TID 0000.0001)  cg2d: iter=    51 ; resid.=  1.06530385913754E-04
(PID.TID 0000.0001)  cg2d: iter=    52 ; resid.=  9.57467809128935E-05
(PID.TID 0000.0001)  cg2d: iter=    53 ; resid.=  8.02144051415354E-05
(PID.TID 0000.0001)  cg2d: iter=    54 ; resid.=  6.23975802534156E-05
(PID.TID 0000.0001)  cg2d: iter=    55 ; resid.=  5.05217181228236E-05
(PID.TID 0000.0001)  cg2d: iter=    56 ; resid.=  3.97235295528933E-05
(PID.TID 0000.0001)  cg2d: iter=    57 ; resid.=  3.11284874802287E-05
(PID.TID 0000.0001)  cg2d: iter=    58 ; resid.=  2.44338114369953E-05
(PID.TID 0000.0001)  cg2d: iter=    59 ; resid.=  2.03361536550352E-05
(PID.TID 0000.0001)  cg2d: iter=    60 ; resid.=  1.57309823577399E-05
(PID.TID 0000.0001)  cg2d: iter=    61 ; resid.=  1.33175119092714E-05
(PID.TID 0000.0001)  cg2d: iter=    62 ; resid.=  1.13597295725203E-05
(PID.TID 0000.0001)  cg2d: iter=    63 ; resid.=  1.04556865937929E-05
(PID.TID 0000.0001)  cg2d: iter=    64 ; resid.=  9.79261908565557E-06
(PID.TID 0000.0001)  cg2d: iter=    65 ; resid.=  7.86379270124915E-06
(PID.TID 0000.0001)  cg2d: iter=    66 ; resid.=  5.93091611907307E-06
(PID.TID 0000.0001)  cg2d: iter=    67 ; resid.=  5.11956153666796E-06
(PID.TID 0000.0001)  cg2d: iter=    68 ; resid.=  4.29351283848218E-06
(PID.TID 0000.0001)  cg2d: iter=    69 ; resid.=  3.31455546969941E-06
(PID.TID 0000.0001)  cg2d: iter=    70 ; resid.=  2.86840096057615E-06
(PID.TID 0000.0001)  cg2d: iter=    71 ; resid.=  2.41751893247419E-06
(PID.TID 0000.0001)  cg2d: iter=    72 ; resid.=  2.02128070587821E-06
(PID.TID 0000.0001)  cg2d: iter=    73 ; resid.=  1.62556839061872E-06
(PID.TID 0000.0001)  cg2d: iter=    74 ; resid.=  1.24272440702053E-06
(PID.TID 0000.0001)  cg2d: iter=    75 ; resid.=  1.01821667863885E-06
(PID.TID 0000.0001)  cg2d: iter=    76 ; resid.=  8.25826299442358E-07
(PID.TID 0000.0001)  cg2d: iter=    77 ; resid.=  7.10194555987808E-07
(PID.TID 0000.0001)  cg2d: iter=    78 ; resid.=  6.13645276416629E-07
(PID.TID 0000.0001)  cg2d: iter=    79 ; resid.=  5.19064951234799E-07
(PID.TID 0000.0001)  cg2d: iter=    80 ; resid.=  4.46350005243477E-07
(PID.TID 0000.0001)  cg2d: iter=    81 ; resid.=  3.61996009185507E-07
(PID.TID 0000.0001)  cg2d: iter=    82 ; resid.=  2.48129684563219E-07
(PID.TID 0000.0001)  cg2d: iter=    83 ; resid.=  2.01001058657718E-07
(PID.TID 0000.0001)  cg2d: iter=    84 ; resid.=  1.77357243515017E-07
(PID.TID 0000.0001)  cg2d: iter=    85 ; resid.=  1.44482311350839E-07
(PID.TID 0000.0001)  cg2d: iter=    86 ; resid.=  1.17485213876434E-07
(PID.TID 0000.0001)  cg2d: iter=    87 ; resid.=  8.68524489682462E-08
(PID.TID 0000.0001)  cg2d: iter=    88 ; resid.=  6.78856539381594E-08
(PID.TID 0000.0001)  cg2d: iter=    89 ; resid.=  5.80895398237913E-08
(PID.TID 0000.0001)  cg2d: iter=    90 ; resid.=  4.49276616793535E-08
(PID.TID 0000.0001)  cg2d: iter=    91 ; resid.=  3.28889683440238E-08
(PID.TID 0000.0001)  cg2d: iter=    92 ; resid.=  2.22392369683090E-08
(PID.TID 0000.0001)  cg2d: iter=    93 ; resid.=  1.72910849383765E-08
(PID.TID 0000.0001)  cg2d: iter=    94 ; resid.=  1.35832883747159E-08
(PID.TID 0000.0001)  cg2d: iter=    95 ; resid.=  1.00637201458295E-08
(PID.TID 0000.0001)  cg2d: iter=    96 ; resid.=  7.24422621182756E-09
(PID.TID 0000.0001)  cg2d: iter=    97 ; resid.=  5.56271285492529E-09
(PID.TID 0000.0001)  cg2d: iter=    98 ; resid.=  4.38591729930528E-09
(PID.TID 0000.0001)  cg2d: iter=    99 ; resid.=  3.30302116396061E-09
(PID.TID 0000.0001)  cg2d: iter=   100 ; resid.=  2.55998840308824E-09
(PID.TID 0000.0001)  cg2d: iter=   101 ; resid.=  1.94620005404282E-09
(PID.TID 0000.0001)  cg2d: iter=   102 ; resid.=  1.60849740486783E-09
(PID.TID 0000.0001)  cg2d: iter=   103 ; resid.=  1.34572174516751E-09
(PID.TID 0000.0001)  cg2d: iter=   104 ; resid.=  1.15663684475910E-09
(PID.TID 0000.0001)  cg2d: iter=   105 ; resid.=  1.01600050384264E-09
(PID.TID 0000.0001)  cg2d: iter=   106 ; resid.=  8.81778803744858E-10
(PID.TID 0000.0001)  cg2d: iter=   107 ; resid.=  7.32872985982808E-10
(PID.TID 0000.0001)  cg2d: iter=   108 ; resid.=  5.86891663943144E-10
(PID.TID 0000.0001)  cg2d: iter=   109 ; resid.=  4.75037636614073E-10
(PID.TID 0000.0001)  cg2d: iter=   110 ; resid.=  3.85601288491408E-10
(PID.TID 0000.0001)  cg2d: iter=   111 ; resid.=  2.97237311576733E-10
(PID.TID 0000.0001)  cg2d: iter=   112 ; resid.=  2.06072656548224E-10
(PID.TID 0000.0001)  cg2d: iter=   113 ; resid.=  1.63293096176873E-10
(PID.TID 0000.0001)  cg2d: iter=   114 ; resid.=  1.23193843121740E-10
(PID.TID 0000.0001)  cg2d: iter=   115 ; resid.=  9.44484352254657E-11
(PID.TID 0000.0001)  cg2d: iter=   116 ; resid.=  7.02336954414595E-11
(PID.TID 0000.0001)  cg2d: iter=   117 ; resid.=  5.36149263766357E-11
(PID.TID 0000.0001)  cg2d: iter=   118 ; resid.=  4.39046463892863E-11
(PID.TID 0000.0001)  cg2d: iter=   119 ; resid.=  3.52520251755903E-11
(PID.TID 0000.0001)  cg2d: iter=   120 ; resid.=  2.77942120085581E-11
(PID.TID 0000.0001)  cg2d: iter=   121 ; resid.=  2.18848681707198E-11
(PID.TID 0000.0001)  cg2d: iter=   122 ; resid.=  1.76438215013553E-11
(PID.TID 0000.0001)  cg2d: iter=   123 ; resid.=  1.28660172763486E-11
(PID.TID 0000.0001)  cg2d: iter=   124 ; resid.=  9.39765692015503E-12
(PID.TID 0000.0001)  cg2d: iter=   125 ; resid.=  6.57962404137854E-12
(PID.TID 0000.0001)  cg2d: iter=   126 ; resid.=  4.79612317199086E-12
(PID.TID 0000.0001)  cg2d: iter=   127 ; resid.=  3.34256877815406E-12
(PID.TID 0000.0001)  cg2d: iter=   128 ; resid.=  2.44398863826396E-12
(PID.TID 0000.0001)  cg2d: iter=   129 ; resid.=  1.83103065981759E-12
(PID.TID 0000.0001)  cg2d: iter=   130 ; resid.=  1.32093929089574E-12
(PID.TID 0000.0001)  cg2d: iter=   131 ; resid.=  1.01575581446173E-12
(PID.TID 0000.0001)  cg2d: iter=   132 ; resid.=  8.22235440930720E-13
(PID.TID 0000.0001)  cg2d: iter=   133 ; resid.=  6.95047195774841E-13
(PID.TID 0000.0001)  cg2d: iter=   134 ; resid.=  5.57645066914558E-13
(PID.TID 0000.0001)  cg2d: iter=   135 ; resid.=  4.00217382025799E-13
(PID.TID 0000.0001)  cg2d: iter=   136 ; resid.=  2.82127668817919E-13
(PID.TID 0000.0001)  cg2d: iter=   137 ; resid.=  2.11485951889690E-13
(PID.TID 0000.0001)  cg2d: iter=   138 ; resid.=  1.53977561823202E-13
(PID.TID 0000.0001)  cg2d: iter=   139 ; resid.=  1.15504960910042E-13
(PID.TID 0000.0001)  cg2d: iter=   140 ; resid.=  8.06669640632504E-14
DEBUG_STATS_RL:    cg2d_x (SOLVE_FOR_PRESSURE)  min= -1.17377071411154E+01
DEBUG_STATS_RL:    cg2d_x (SOLVE_FOR_PRESSURE)  max=  2.32828059987612E+01
DEBUG_STATS_RL:    cg2d_x (SOLVE_FOR_PRESSURE) mean= -9.12700857212718E-01
DEBUG_STATS_RL:    cg2d_x (SOLVE_FOR_PRESSURE) S.D.=  5.85799217736827E+00
(PID.TID 0000.0001)      cg2d_init_res =   8.89486488407076E-01
(PID.TID 0000.0001)      cg2d_iters(min,last) =      -1     140
(PID.TID 0000.0001)      cg2d_last_res =   8.06669640632504E-14
(PID.TID 0000.0001) // =======================================================
(PID.TID 0000.0001) // Begin MONITOR dynamic field statistics
(PID.TID 0000.0001) // =======================================================
(PID.TID 0000.0001) %MON time_tsnumber                =                     7
(PID.TID 0000.0001) %MON time_secondsf                =   6.0480000000000E+05
(PID.TID 0000.0001) %MON dynstat_eta_max              =   2.3733747195475E+00
(PID.TID 0000.0001) %MON dynstat_eta_min              =  -1.1965042957303E+00
(PID.TID 0000.0001) %MON dynstat_eta_mean             =  -4.7080902545969E-04
(PID.TID 0000.0001) %MON dynstat_eta_sd               =   5.9541276895444E-01
(PID.TID 0000.0001) %MON dynstat_eta_del2             =   2.2592410846433E-03
(PID.TID 0000.0001) %MON dynstat_uvel_max             =   1.3336878291779E-01
(PID.TID 0000.0001) %MON dynstat_uvel_min             =  -9.8541545829716E-02
(PID.TID 0000.0001) %MON dynstat_uvel_mean            =   2.2473869770173E-03
(PID.TID 0000.0001) %MON dynstat_uvel_sd              =   9.4188635674549E-03
(PID.TID 0000.0001) %MON dynstat_uvel_del2            =   7.9937265397933E-05
(PID.TID 0000.0001) %MON dynstat_vvel_max             =   8.3457939705679E-02
(PID.TID 0000.0001) %MON dynstat_vvel_min             =  -1.1062145929798E-01
(PID.TID 0000.0001) %MON dynstat_vvel_mean            =  -9.6054817838341E-04
(PID.TID 0000.0001) %MON dynstat_vvel_sd              =   1.0327599332285E-02
(PID.TID 0000.0001) %MON dynstat_vvel_del2            =   1.0591730361281E-04
(PID.TID 0000.0001) %MON dynstat_wvel_max             =   2.3171034119295E-04
(PID.TID 0000.0001) %MON dynstat_wvel_min             =  -1.8335646546301E-04
(PID.TID 0000.0001) %MON dynstat_wvel_mean            =   4.3366194994450E-22
(PID.TID 0000.0001) %MON dynstat_wvel_sd              =   2.4962458460706E-05
(PID.TID 0000.0001) %MON dynstat_wvel_del2            =   3.2213223787131E-07
(PID.TID 0000.0001) %MON dynstat_theta_max            =   2.9847489413590E+01
(PID.TID 0000.0001) %MON dynstat_theta_min            =  -1.9109713773176E+00
(PID.TID 0000.0001) %MON dynstat_theta_mean           =   3.6295873274439E+00
(PID.TID 0000.0001) %MON dynstat_theta_sd             =   4.4158317408231E+00
(PID.TID 0000.0001) %MON dynstat_theta_del2           =   5.2606267143239E-03
(PID.TID 0000.0001) %MON dynstat_salt_max             =   3.7444203707658E+01
(PID.TID 0000.0001) %MON dynstat_salt_min             =   2.9779518434393E+01
(PID.TID 0000.0001) %MON dynstat_salt_mean            =   3.4727986914058E+01
(PID.TID 0000.0001) %MON dynstat_salt_sd              =   2.9614705640375E-01
(PID.TID 0000.0001) %MON dynstat_salt_del2            =   1.0119894629143E-03
(PID.TID 0000.0001) %MON dynstat_sst_max              =   2.9847489413590E+01
(PID.TID 0000.0001) %MON dynstat_sst_min              =  -1.9109713773176E+00
(PID.TID 0000.0001) %MON dynstat_sst_mean             =   1.8574953952379E+01
(PID.TID 0000.0001) %MON dynstat_sst_sd               =   9.1133398657495E+00
(PID.TID 0000.0001) %MON dynstat_sst_del2             =   2.6284819524465E-02
(PID.TID 0000.0001) %MON dynstat_sss_max              =   3.7444203707658E+01
(PID.TID 0000.0001) %MON dynstat_sss_min              =   2.9779518434393E+01
(PID.TID 0000.0001) %MON dynstat_sss_mean             =   3.4862574923921E+01
(PID.TID 0000.0001) %MON dynstat_sss_sd               =   9.6621711487761E-01
(PID.TID 0000.0001) %MON dynstat_sss_del2             =   8.0114641675717E-03
(PID.TID 0000.0001) %MON forcing_qnet_max             =   4.3217993164062E+02
(PID.TID 0000.0001) %MON forcing_qnet_min             =  -1.8422400970459E+02
(PID.TID 0000.0001) %MON forcing_qnet_mean            =  -1.6625133603451E+01
(PID.TID 0000.0001) %MON forcing_qnet_sd              =   1.1159198929743E+02
(PID.TID 0000.0001) %MON forcing_qnet_del2            =   9.9967143614056E-01
(PID.TID 0000.0001) %MON forcing_qsw_max              =   0.0000000000000E+00
(PID.TID 0000.0001) %MON forcing_qsw_min              =   0.0000000000000E+00
(PID.TID 0000.0001) %MON forcing_qsw_mean             =   0.0000000000000E+00
(PID.TID 0000.0001) %MON forcing_qsw_sd               =   0.0000000000000E+00
(PID.TID 0000.0001) %MON forcing_qsw_del2             =   0.0000000000000E+00
(PID.TID 0000.0001) %MON forcing_empmr_max            =   8.1887607450426E-05
(PID.TID 0000.0001) %MON forcing_empmr_min            =  -7.2590404442963E-05
(PID.TID 0000.0001) %MON forcing_empmr_mean           =   8.3500924240108E-07
(PID.TID 0000.0001) %MON forcing_empmr_sd             =   2.8083907977094E-05
(PID.TID 0000.0001) %MON forcing_empmr_del2           =   3.6258320756835E-07
(PID.TID 0000.0001) %MON forcing_fu_max               =   2.6977391839027E-01
(PID.TID 0000.0001) %MON forcing_fu_min               =  -1.6355978995562E-01
(PID.TID 0000.0001) %MON forcing_fu_mean              =   1.6070970541901E-02
(PID.TID 0000.0001) %MON forcing_fu_sd                =   9.0225339362360E-02
(PID.TID 0000.0001) %MON forcing_fu_del2              =   6.6893050433667E-04
(PID.TID 0000.0001) %MON forcing_fv_max               =   2.1620217412710E-01
(PID.TID 0000.0001) %MON forcing_fv_min               =  -1.8339881747961E-01
(PID.TID 0000.0001) %MON forcing_fv_mean              =  -5.9227604812523E-03
(PID.TID 0000.0001) %MON forcing_fv_sd                =   4.6005326854092E-02
(PID.TID 0000.0001) %MON forcing_fv_del2              =   4.5373726950670E-04
(PID.TID 0000.0001) %MON trAdv_CFL_u_max              =   4.0226897986539E-02
(PID.TID 0000.0001) %MON trAdv_CFL_v_max              =   1.9561385744339E-02
(PID.TID 0000.0001) %MON trAdv_CFL_w_max              =   6.6479032386544E-02
(PID.TID 0000.0001) %MON advcfl_uvel_max              =   4.4083133154072E-02
(PID.TID 0000.0001) %MON advcfl_vvel_max              =   2.1491975386690E-02
(PID.TID 0000.0001) %MON advcfl_wvel_max              =   7.8842391982795E-02
(PID.TID 0000.0001) %MON advcfl_W_hf_max              =   8.9216390927899E-02
(PID.TID 0000.0001) %MON pe_b_mean                    =   4.5364670407603E-04
(PID.TID 0000.0001) %MON ke_max                       =   9.6455922488338E-03
(PID.TID 0000.0001) %MON ke_mean                      =   9.0897452882241E-05
(PID.TID 0000.0001) %MON ke_vol                       =   1.3226782436723E+18
(PID.TID 0000.0001) %MON vort_r_min                   =  -4.5115129457862E-07
(PID.TID 0000.0001) %MON vort_r_max                   =   4.4519591840500E-07
(PID.TID 0000.0001) %MON vort_a_mean                  =  -2.5274807037256E-05
(PID.TID 0000.0001) %MON vort_a_sd                    =   7.3604836824944E-05
(PID.TID 0000.0001) %MON vort_p_mean                  =  -3.1845655345636E-05
(PID.TID 0000.0001) %MON vort_p_sd                    =   1.3162409680435E-04
(PID.TID 0000.0001) %MON surfExpan_theta_mean         =   4.1710862389535E-07
(PID.TID 0000.0001) %MON surfExpan_salt_mean          =  -6.9016126979170E-08
(PID.TID 0000.0001) // =======================================================
(PID.TID 0000.0001) // End MONITOR dynamic field statistics
(PID.TID 0000.0001) // =======================================================
 EXTERNAL_FIELDS_LOAD,         7 : iP,iLd,i0,i1=   12    1   12    1 ; Wght=  0.2666666667  0.7333333333
 EXTERNAL_FIELDS_LOAD: (fu0,1),fu,fv= -4.5368E-02 -3.5633E-02 -3.8229E-02 -6.0721E-02
 EXTERNAL_FIELDS_LOAD: SST,SSS,Q,E-P=  4.7561E-01  3.4527E+01  2.6541E+02  1.1213E-05
DEBUG_STATS_RL:          Uvel (THERMODYNAMICS)  min= -9.85415458297162E-02
DEBUG_STATS_RL:          Uvel (THERMODYNAMICS)  max=  1.33368782917788E-01
DEBUG_STATS_RL:          Uvel (THERMODYNAMICS) mean=  5.28627824683636E-03
DEBUG_STATS_RL:          Uvel (THERMODYNAMICS) S.D.=  1.57146489553699E-02
DEBUG_STATS_RL:          Vvel (THERMODYNAMICS)  min= -1.10621459297980E-01
DEBUG_STATS_RL:          Vvel (THERMODYNAMICS)  max=  8.34579397056793E-02
DEBUG_STATS_RL:          Vvel (THERMODYNAMICS) mean= -2.71089700759843E-03
DEBUG_STATS_RL:          Vvel (THERMODYNAMICS) S.D.=  1.52190325522469E-02
DEBUG_STATS_RL:          Wvel (THERMODYNAMICS)  min= -1.83356465463009E-04
DEBUG_STATS_RL:          Wvel (THERMODYNAMICS)  max=  2.31710341192954E-04
DEBUG_STATS_RL:          Wvel (THERMODYNAMICS) mean= -6.83318388574755E-07
DEBUG_STATS_RL:          Wvel (THERMODYNAMICS) S.D.=  2.35012878637096E-05
DEBUG_STATS_RL:         Theta (THERMODYNAMICS)  min= -1.91332827027882E+00
DEBUG_STATS_RL:         Theta (THERMODYNAMICS)  max=  2.98524309208451E+01
DEBUG_STATS_RL:         Theta (THERMODYNAMICS) mean=  3.21211186385141E+00
DEBUG_STATS_RL:         Theta (THERMODYNAMICS) S.D.=  5.85041726551936E+00
DEBUG_STATS_RL:          Salt (THERMODYNAMICS)  min=  1.00000000000000E-02
DEBUG_STATS_RL:          Salt (THERMODYNAMICS)  max=  3.74453277065725E+01
DEBUG_STATS_RL:          Salt (THERMODYNAMICS) mean=  1.88551627209530E+01
DEBUG_STATS_RL:          Salt (THERMODYNAMICS) S.D.=  1.73006338499783E+01
DEBUG_STATS_RL:         GtNm1 (THERMODYNAMICS)  min= -3.77577700399187E-06
DEBUG_STATS_RL:         GtNm1 (THERMODYNAMICS)  max=  2.03640718161848E-06
DEBUG_STATS_RL:         GtNm1 (THERMODYNAMICS) mean=  2.48039741072800E-08
DEBUG_STATS_RL:         GtNm1 (THERMODYNAMICS) S.D.=  2.65223272332843E-07
DEBUG_STATS_RL:         GsNm1 (THERMODYNAMICS)  min= -4.64546540244903E-07
DEBUG_STATS_RL:         GsNm1 (THERMODYNAMICS)  max=  3.74451378794277E-07
DEBUG_STATS_RL:         GsNm1 (THERMODYNAMICS) mean=  1.87230334771252E-10
DEBUG_STATS_RL:         GsNm1 (THERMODYNAMICS) S.D.=  2.13962665738324E-08
DEBUG_STATS_RL:                EtaN (DYNAMICS)  min= -1.19650429573028E+00
DEBUG_STATS_RL:                EtaN (DYNAMICS)  max=  2.37337471954752E+00
DEBUG_STATS_RL:                EtaN (DYNAMICS) mean= -9.30378039972197E-02
DEBUG_STATS_RL:                EtaN (DYNAMICS) S.D.=  5.97144972208797E-01
DEBUG_STATS_RL:                Uvel (DYNAMICS)  min= -9.85415458297162E-02
DEBUG_STATS_RL:                Uvel (DYNAMICS)  max=  1.33368782917788E-01
DEBUG_STATS_RL:                Uvel (DYNAMICS) mean=  5.28627824683636E-03
DEBUG_STATS_RL:                Uvel (DYNAMICS) S.D.=  1.57146489553699E-02
DEBUG_STATS_RL:                Vvel (DYNAMICS)  min= -1.10621459297980E-01
DEBUG_STATS_RL:                Vvel (DYNAMICS)  max=  8.34579397056793E-02
DEBUG_STATS_RL:                Vvel (DYNAMICS) mean= -2.71089700759843E-03
DEBUG_STATS_RL:                Vvel (DYNAMICS) S.D.=  1.52190325522469E-02
DEBUG_STATS_RL:                Wvel (DYNAMICS)  min= -1.83356465463009E-04
DEBUG_STATS_RL:                Wvel (DYNAMICS)  max=  2.31710341192954E-04
DEBUG_STATS_RL:                Wvel (DYNAMICS) mean= -6.83318388574755E-07
DEBUG_STATS_RL:                Wvel (DYNAMICS) S.D.=  2.35012878637096E-05
DEBUG_STATS_RL:               Theta (DYNAMICS)  min= -1.91332827027882E+00
DEBUG_STATS_RL:               Theta (DYNAMICS)  max=  2.98524309208451E+01
DEBUG_STATS_RL:               Theta (DYNAMICS) mean=  3.21211186385141E+00
DEBUG_STATS_RL:               Theta (DYNAMICS) S.D.=  5.85041726551936E+00
DEBUG_STATS_RL:                Salt (DYNAMICS)  min=  1.00000000000000E-02
DEBUG_STATS_RL:                Salt (DYNAMICS)  max=  3.74453277065725E+01
DEBUG_STATS_RL:                Salt (DYNAMICS) mean=  1.88551627209530E+01
DEBUG_STATS_RL:                Salt (DYNAMICS) S.D.=  1.73006338499783E+01
DEBUG_STATS_RL:                  Gu (DYNAMICS)  min= -1.00857691680699E-01
DEBUG_STATS_RL:                  Gu (DYNAMICS)  max=  1.44846153731686E-01
DEBUG_STATS_RL:                  Gu (DYNAMICS) mean=  4.60630029747828E-03
DEBUG_STATS_RL:                  Gu (DYNAMICS) S.D.=  1.76463924321296E-02
DEBUG_STATS_RL:                  Gv (DYNAMICS)  min= -9.42620235780705E-02
DEBUG_STATS_RL:                  Gv (DYNAMICS)  max=  8.68205202093800E-02
DEBUG_STATS_RL:                  Gv (DYNAMICS) mean= -1.20209049160202E-03
DEBUG_STATS_RL:                  Gv (DYNAMICS) S.D.=  1.47297844821630E-02
DEBUG_STATS_RL:               GuNm1 (DYNAMICS)  min= -7.14041352952244E-06
DEBUG_STATS_RL:               GuNm1 (DYNAMICS)  max=  7.55768908805087E-06
DEBUG_STATS_RL:               GuNm1 (DYNAMICS) mean= -3.44038631612644E-08
DEBUG_STATS_RL:               GuNm1 (DYNAMICS) S.D.=  1.21560943462587E-06
DEBUG_STATS_RL:               GvNm1 (DYNAMICS)  min= -1.03263428974969E-05
DEBUG_STATS_RL:               GvNm1 (DYNAMICS)  max=  1.63444961121571E-05
DEBUG_STATS_RL:               GvNm1 (DYNAMICS) mean=  7.79775323364626E-07
DEBUG_STATS_RL:               GvNm1 (DYNAMICS) S.D.=  2.71467157941926E-06
DEBUG_STATS_RL:               GtNm1 (DYNAMICS)  min= -3.77577700399187E-06
DEBUG_STATS_RL:               GtNm1 (DYNAMICS)  max=  2.03640718161848E-06
DEBUG_STATS_RL:               GtNm1 (DYNAMICS) mean=  2.48039741072800E-08
DEBUG_STATS_RL:               GtNm1 (DYNAMICS) S.D.=  2.65223272332843E-07
DEBUG_STATS_RL:               GsNm1 (DYNAMICS)  min= -4.64546540244903E-07
DEBUG_STATS_RL:               GsNm1 (DYNAMICS)  max=  3.74451378794277E-07
DEBUG_STATS_RL:               GsNm1 (DYNAMICS) mean=  1.87230334771252E-10
DEBUG_STATS_RL:               GsNm1 (DYNAMICS) S.D.=  2.13962665738324E-08
DEBUG_STATS_RL:    cg2d_b (SOLVE_FOR_PRESSURE)  min= -2.08771870259032E+04
DEBUG_STATS_RL:    cg2d_b (SOLVE_FOR_PRESSURE)  max=  1.56737880645804E+04
DEBUG_STATS_RL:    cg2d_b (SOLVE_FOR_PRESSURE) mean=  5.18825145572838E-01
DEBUG_STATS_RL:    cg2d_b (SOLVE_FOR_PRESSURE) S.D.=  3.86082077203026E+03
 cg2d: Sum(rhs),rhsMax =   5.75307492580656E-02  1.37126954097865E+00
(PID.TID 0000.0001)  cg2d: iter=     1 ; resid.=  6.34569515317959E-01
(PID.TID 0000.0001)  cg2d: iter=     2 ; resid.=  6.69711098885957E-01
(PID.TID 0000.0001)  cg2d: iter=     3 ; resid.=  6.39978408291980E-01
(PID.TID 0000.0001)  cg2d: iter=     4 ; resid.=  4.80342255754894E-01
(PID.TID 0000.0001)  cg2d: iter=     5 ; resid.=  4.73736513974338E-01
(PID.TID 0000.0001)  cg2d: iter=     6 ; resid.=  3.65843831504014E-01
(PID.TID 0000.0001)  cg2d: iter=     7 ; resid.=  2.68391199999869E-01
(PID.TID 0000.0001)  cg2d: iter=     8 ; resid.=  1.98670700788465E-01
(PID.TID 0000.0001)  cg2d: iter=     9 ; resid.=  1.72688711427299E-01
(PID.TID 0000.0001)  cg2d: iter=    10 ; resid.=  1.61904597913674E-01
(PID.TID 0000.0001)  cg2d: iter=    11 ; resid.=  1.44228582452125E-01
(PID.TID 0000.0001)  cg2d: iter=    12 ; resid.=  1.20393025828461E-01
(PID.TID 0000.0001)  cg2d: iter=    13 ; resid.=  1.02146822512709E-01
(PID.TID 0000.0001)  cg2d: iter=    14 ; resid.=  8.70788528960111E-02
(PID.TID 0000.0001)  cg2d: iter=    15 ; resid.=  7.75763583369821E-02
(PID.TID 0000.0001)  cg2d: iter=    16 ; resid.=  7.46660079116666E-02
(PID.TID 0000.0001)  cg2d: iter=    17 ; resid.=  6.16813869559954E-02
(PID.TID 0000.0001)  cg2d: iter=    18 ; resid.=  4.66835152629482E-02
(PID.TID 0000.0001)  cg2d: iter=    19 ; resid.=  3.40133457618628E-02
(PID.TID 0000.0001)  cg2d: iter=    20 ; resid.=  2.50316023612725E-02
(PID.TID 0000.0001)  cg2d: iter=    21 ; resid.=  1.98372224912062E-02
(PID.TID 0000.0001)  cg2d: iter=    22 ; resid.=  1.62166464718056E-02
(PID.TID 0000.0001)  cg2d: iter=    23 ; resid.=  1.19652807601285E-02
(PID.TID 0000.0001)  cg2d: iter=    24 ; resid.=  9.66293098670568E-03
(PID.TID 0000.0001)  cg2d: iter=    25 ; resid.=  7.20997421489820E-03
(PID.TID 0000.0001)  cg2d: iter=    26 ; resid.=  6.05552213638856E-03
(PID.TID 0000.0001)  cg2d: iter=    27 ; resid.=  5.11979874487972E-03
(PID.TID 0000.0001)  cg2d: iter=    28 ; resid.=  4.39305798969744E-03
(PID.TID 0000.0001)  cg2d: iter=    29 ; resid.=  3.69840576588096E-03
(PID.TID 0000.0001)  cg2d: iter=    30 ; resid.=  3.47636233240269E-03
(PID.TID 0000.0001)  cg2d: iter=    31 ; resid.=  3.22901169980105E-03
(PID.TID 0000.0001)  cg2d: iter=    32 ; resid.=  2.66367417772091E-03
(PID.TID 0000.0001)  cg2d: iter=    33 ; resid.=  2.28040090648371E-03
(PID.TID 0000.0001)  cg2d: iter=    34 ; resid.=  1.89826633840891E-03
(PID.TID 0000.0001)  cg2d: iter=    35 ; resid.=  1.37601418440096E-03
(PID.TID 0000.0001)  cg2d: iter=    36 ; resid.=  1.12475074560754E-03
(PID.TID 0000.0001)  cg2d: iter=    37 ; resid.=  9.27694580561006E-04
(PID.TID 0000.0001)  cg2d: iter=    38 ; resid.=  7.83494276597886E-04
(PID.TID 0000.0001)  cg2d: iter=    39 ; resid.=  6.24926148196787E-04
(PID.TID 0000.0001)  cg2d: iter=    40 ; resid.=  5.69952820822704E-04
(PID.TID 0000.0001)  cg2d: iter=    41 ; resid.=  4.59682918859312E-04
(PID.TID 0000.0001)  cg2d: iter=    42 ; resid.=  4.25626267117999E-04
(PID.TID 0000.0001)  cg2d: iter=    43 ; resid.=  3.72762820634428E-04
(PID.TID 0000.0001)  cg2d: iter=    44 ; resid.=  3.18230840319834E-04
(PID.TID 0000.0001)  cg2d: iter=    45 ; resid.=  2.80873953720474E-04
(PID.TID 0000.0001)  cg2d: iter=    46 ; resid.=  2.31112720873074E-04
(PID.TID 0000.0001)  cg2d: iter=    47 ; resid.=  1.80590993002030E-04
(PID.TID 0000.0001)  cg2d: iter=    48 ; resid.=  1.38189287682672E-04
(PID.TID 0000.0001)  cg2d: iter=    49 ; resid.=  1.06380421589390E-04
(PID.TID 0000.0001)  cg2d: iter=    50 ; resid.=  8.66507549192861E-05
(PID.TID 0000.0001)  cg2d: iter=    51 ; resid.=  7.49830956108737E-05
(PID.TID 0000.0001)  cg2d: iter=    52 ; resid.=  6.34956027794440E-05
(PID.TID 0000.0001)  cg2d: iter=    53 ; resid.=  5.33716468691265E-05
(PID.TID 0000.0001)  cg2d: iter=    54 ; resid.=  4.52884109111703E-05
(PID.TID 0000.0001)  cg2d: iter=    55 ; resid.=  4.07534393480941E-05
(PID.TID 0000.0001)  cg2d: iter=    56 ; resid.=  3.34806566844095E-05
(PID.TID 0000.0001)  cg2d: iter=    57 ; resid.=  2.74228943933407E-05
(PID.TID 0000.0001)  cg2d: iter=    58 ; resid.=  2.15895400578111E-05
(PID.TID 0000.0001)  cg2d: iter=    59 ; resid.=  1.96713136863192E-05
(PID.TID 0000.0001)  cg2d: iter=    60 ; resid.=  1.68983583278005E-05
(PID.TID 0000.0001)  cg2d: iter=    61 ; resid.=  1.42510168451560E-05
(PID.TID 0000.0001)  cg2d: iter=    62 ; resid.=  1.18332651142943E-05
(PID.TID 0000.0001)  cg2d: iter=    63 ; resid.=  1.08511507559717E-05
(PID.TID 0000.0001)  cg2d: iter=    64 ; resid.=  1.01993419871474E-05
(PID.TID 0000.0001)  cg2d: iter=    65 ; resid.=  7.76507681693703E-06
(PID.TID 0000.0001)  cg2d: iter=    66 ; resid.=  5.44170006509749E-06
(PID.TID 0000.0001)  cg2d: iter=    67 ; resid.=  4.15761019145895E-06
(PID.TID 0000.0001)  cg2d: iter=    68 ; resid.=  3.41140257038191E-06
(PID.TID 0000.0001)  cg2d: iter=    69 ; resid.=  2.77099527086514E-06
(PID.TID 0000.0001)  cg2d: iter=    70 ; resid.=  2.21838479519595E-06
(PID.TID 0000.0001)  cg2d: iter=    71 ; resid.=  1.76166230606990E-06
(PID.TID 0000.0001)  cg2d: iter=    72 ; resid.=  1.59827620691571E-06
(PID.TID 0000.0001)  cg2d: iter=    73 ; resid.=  1.49651798052470E-06
(PID.TID 0000.0001)  cg2d: iter=    74 ; resid.=  1.19303934220236E-06
(PID.TID 0000.0001)  cg2d: iter=    75 ; resid.=  9.67057640796034E-07
(PID.TID 0000.0001)  cg2d: iter=    76 ; resid.=  7.55837974505699E-07
(PID.TID 0000.0001)  cg2d: iter=    77 ; resid.=  6.25313665207175E-07
(PID.TID 0000.0001)  cg2d: iter=    78 ; resid.=  5.31388788259863E-07
(PID.TID 0000.0001)  cg2d: iter=    79 ; resid.=  4.01439009531216E-07
(PID.TID 0000.0001)  cg2d: iter=    80 ; resid.=  3.14099796980493E-07
(PID.TID 0000.0001)  cg2d: iter=    81 ; resid.=  2.48775901652746E-07
(PID.TID 0000.0001)  cg2d: iter=    82 ; resid.=  1.81078093710654E-07
(PID.TID 0000.0001)  cg2d: iter=    83 ; resid.=  1.44755922892237E-07
(PID.TID 0000.0001)  cg2d: iter=    84 ; resid.=  1.14723021667848E-07
(PID.TID 0000.0001)  cg2d: iter=    85 ; resid.=  8.87197422625032E-08
(PID.TID 0000.0001)  cg2d: iter=    86 ; resid.=  7.41577841194302E-08
(PID.TID 0000.0001)  cg2d: iter=    87 ; resid.=  5.75009890695200E-08
(PID.TID 0000.0001)  cg2d: iter=    88 ; resid.=  4.23898788839222E-08
(PID.TID 0000.0001)  cg2d: iter=    89 ; resid.=  3.21529234323679E-08
(PID.TID 0000.0001)  cg2d: iter=    90 ; resid.=  2.57833650357069E-08
(PID.TID 0000.0001)  cg2d: iter=    91 ; resid.=  2.14671651464016E-08
(PID.TID 0000.0001)  cg2d: iter=    92 ; resid.=  1.51241594710362E-08
(PID.TID 0000.0001)  cg2d: iter=    93 ; resid.=  1.05423226129482E-08
(PID.TID 0000.0001)  cg2d: iter=    94 ; resid.=  7.76163058025710E-09
(PID.TID 0000.0001)  cg2d: iter=    95 ; resid.=  6.05207550960399E-09
(PID.TID 0000.0001)  cg2d: iter=    96 ; resid.=  4.45087768536447E-09
(PID.TID 0000.0001)  cg2d: iter=    97 ; resid.=  3.62412915776109E-09
(PID.TID 0000.0001)  cg2d: iter=    98 ; resid.=  2.81484852920449E-09
(PID.TID 0000.0001)  cg2d: iter=    99 ; resid.=  2.05091546456167E-09
(PID.TID 0000.0001)  cg2d: iter=   100 ; resid.=  1.56447234731170E-09
(PID.TID 0000.0001)  cg2d: iter=   101 ; resid.=  1.19304704936892E-09
(PID.TID 0000.0001)  cg2d: iter=   102 ; resid.=  9.93895159925114E-10
(PID.TID 0000.0001)  cg2d: iter=   103 ; resid.=  8.05354989545361E-10
(PID.TID 0000.0001)  cg2d: iter=   104 ; resid.=  6.61728963696615E-10
(PID.TID 0000.0001)  cg2d: iter=   105 ; resid.=  5.53282776733420E-10
(PID.TID 0000.0001)  cg2d: iter=   106 ; resid.=  4.88759947243520E-10
(PID.TID 0000.0001)  cg2d: iter=   107 ; resid.=  4.16464222336316E-10
(PID.TID 0000.0001)  cg2d: iter=   108 ; resid.=  3.26389293753980E-10
(PID.TID 0000.0001)  cg2d: iter=   109 ; resid.=  2.46920303678843E-10
(PID.TID 0000.0001)  cg2d: iter=   110 ; resid.=  2.03021607529165E-10
(PID.TID 0000.0001)  cg2d: iter=   111 ; resid.=  1.66233746353672E-10
(PID.TID 0000.0001)  cg2d: iter=   112 ; resid.=  1.24910663942712E-10
(PID.TID 0000.0001)  cg2d: iter=   113 ; resid.=  1.06626452919001E-10
(PID.TID 0000.0001)  cg2d: iter=   114 ; resid.=  8.92849134418952E-11
(PID.TID 0000.0001)  cg2d: iter=   115 ; resid.=  7.56862760629195E-11
(PID.TID 0000.0001)  cg2d: iter=   116 ; resid.=  5.62013092448062E-11
(PID.TID 0000.0001)  cg2d: iter=   117 ; resid.=  4.16500285286821E-11
(PID.TID 0000.0001)  cg2d: iter=   118 ; resid.=  3.25436482948873E-11
(PID.TID 0000.0001)  cg2d: iter=   119 ; resid.=  2.84441724704152E-11
(PID.TID 0000.0001)  cg2d: iter=   120 ; resid.=  2.48108313386601E-11
(PID.TID 0000.0001)  cg2d: iter=   121 ; resid.=  1.93769368048305E-11
(PID.TID 0000.0001)  cg2d: iter=   122 ; resid.=  1.44087462595674E-11
(PID.TID 0000.0001)  cg2d: iter=   123 ; resid.=  1.03623592823604E-11
(PID.TID 0000.0001)  cg2d: iter=   124 ; resid.=  7.54054512653411E-12
(PID.TID 0000.0001)  cg2d: iter=   125 ; resid.=  5.26519024008787E-12
(PID.TID 0000.0001)  cg2d: iter=   126 ; resid.=  3.54529518679844E-12
(PID.TID 0000.0001)  cg2d: iter=   127 ; resid.=  2.37414939817877E-12
(PID.TID 0000.0001)  cg2d: iter=   128 ; resid.=  1.78581346089183E-12
(PID.TID 0000.0001)  cg2d: iter=   129 ; resid.=  1.34042373126924E-12
(PID.TID 0000.0001)  cg2d: iter=   130 ; resid.=  1.02219412533479E-12
(PID.TID 0000.0001)  cg2d: iter=   131 ; resid.=  8.27565184674189E-13
(PID.TID 0000.0001)  cg2d: iter=   132 ; resid.=  6.70112628322376E-13
(PID.TID 0000.0001)  cg2d: iter=   133 ; resid.=  5.45971964668289E-13
(PID.TID 0000.0001)  cg2d: iter=   134 ; resid.=  4.38994380989050E-13
(PID.TID 0000.0001)  cg2d: iter=   135 ; resid.=  3.25877679053791E-13
(PID.TID 0000.0001)  cg2d: iter=   136 ; resid.=  2.40524576238981E-13
(PID.TID 0000.0001)  cg2d: iter=   137 ; resid.=  1.75590445708917E-13
(PID.TID 0000.0001)  cg2d: iter=   138 ; resid.=  1.26063360378699E-13
(PID.TID 0000.0001)  cg2d: iter=   139 ; resid.=  1.01313755783815E-13
(PID.TID 0000.0001)  cg2d: iter=   140 ; resid.=  7.30251208333462E-14
DEBUG_STATS_RL:    cg2d_x (SOLVE_FOR_PRESSURE)  min= -1.15512746513051E+01
DEBUG_STATS_RL:    cg2d_x (SOLVE_FOR_PRESSURE)  max=  2.75393986134972E+01
DEBUG_STATS_RL:    cg2d_x (SOLVE_FOR_PRESSURE) mean= -1.11432465678257E+00
DEBUG_STATS_RL:    cg2d_x (SOLVE_FOR_PRESSURE) S.D.=  6.00479918965029E+00
(PID.TID 0000.0001)      cg2d_init_res =   9.62931149991815E-01
(PID.TID 0000.0001)      cg2d_iters(min,last) =      -1     140
(PID.TID 0000.0001)      cg2d_last_res =   7.30251208333462E-14
(PID.TID 0000.0001) // =======================================================
(PID.TID 0000.0001) // Begin MONITOR dynamic field statistics
(PID.TID 0000.0001) // =======================================================
(PID.TID 0000.0001) %MON time_tsnumber                =                     8
(PID.TID 0000.0001) %MON time_secondsf                =   6.9120000000000E+05
(PID.TID 0000.0001) %MON dynstat_eta_max              =   2.8072781461261E+00
(PID.TID 0000.0001) %MON dynstat_eta_min              =  -1.1774999644552E+00
(PID.TID 0000.0001) %MON dynstat_eta_mean             =  -5.4132970721105E-04
(PID.TID 0000.0001) %MON dynstat_eta_sd               =   5.9783247339581E-01
(PID.TID 0000.0001) %MON dynstat_eta_del2             =   2.1581692116855E-03
(PID.TID 0000.0001) %MON dynstat_uvel_max             =   1.4757708403495E-01
(PID.TID 0000.0001) %MON dynstat_uvel_min             =  -9.0123331511639E-02
(PID.TID 0000.0001) %MON dynstat_uvel_mean            =   2.2903500345164E-03
(PID.TID 0000.0001) %MON dynstat_uvel_sd              =   1.0535898712888E-02
(PID.TID 0000.0001) %MON dynstat_uvel_del2            =   8.3822201805689E-05
(PID.TID 0000.0001) %MON dynstat_vvel_max             =   8.9248119097048E-02
(PID.TID 0000.0001) %MON dynstat_vvel_min             =  -1.1341140855366E-01
(PID.TID 0000.0001) %MON dynstat_vvel_mean            =  -4.7359898247550E-04
(PID.TID 0000.0001) %MON dynstat_vvel_sd              =   1.0606691453163E-02
(PID.TID 0000.0001) %MON dynstat_vvel_del2            =   1.0808410201207E-04
(PID.TID 0000.0001) %MON dynstat_wvel_max             =   2.3505115809441E-04
(PID.TID 0000.0001) %MON dynstat_wvel_min             =  -1.9848310532112E-04
(PID.TID 0000.0001) %MON dynstat_wvel_mean            =  -2.0585888287739E-24
(PID.TID 0000.0001) %MON dynstat_wvel_sd              =   2.4910717000023E-05
(PID.TID 0000.0001) %MON dynstat_wvel_del2            =   3.1158210821828E-07
(PID.TID 0000.0001) %MON dynstat_theta_max            =   2.9852430920845E+01
(PID.TID 0000.0001) %MON dynstat_theta_min            =  -1.9133282702788E+00
(PID.TID 0000.0001) %MON dynstat_theta_mean           =   3.6295884729589E+00
(PID.TID 0000.0001) %MON dynstat_theta_sd             =   4.4156947088821E+00
(PID.TID 0000.0001) %MON dynstat_theta_del2           =   5.1918981030137E-03
(PID.TID 0000.0001) %MON dynstat_salt_max             =   3.7445327706572E+01
(PID.TID 0000.0001) %MON dynstat_salt_min             =   2.9779994184178E+01
(PID.TID 0000.0001) %MON dynstat_salt_mean            =   3.4727986394312E+01
(PID.TID 0000.0001) %MON dynstat_salt_sd              =   2.9615103811922E-01
(PID.TID 0000.0001) %MON dynstat_salt_del2            =   1.0112015046006E-03
(PID.TID 0000.0001) %MON dynstat_sst_max              =   2.9852430920845E+01
(PID.TID 0000.0001) %MON dynstat_sst_min              =  -1.9133282702788E+00
(PID.TID 0000.0001) %MON dynstat_sst_mean             =   1.8588065938525E+01
(PID.TID 0000.0001) %MON dynstat_sst_sd               =   9.1032035319882E+00
(PID.TID 0000.0001) %MON dynstat_sst_del2             =   2.6240990386294E-02
(PID.TID 0000.0001) %MON dynstat_sss_max              =   3.7442575121951E+01
(PID.TID 0000.0001) %MON dynstat_sss_min              =   2.9779994184178E+01
(PID.TID 0000.0001) %MON dynstat_sss_mean             =   3.4863100803807E+01
(PID.TID 0000.0001) %MON dynstat_sss_sd               =   9.6658523060451E-01
(PID.TID 0000.0001) %MON dynstat_sss_del2             =   8.0101262707547E-03
(PID.TID 0000.0001) %MON forcing_qnet_max             =   4.3322811889648E+02
(PID.TID 0000.0001) %MON forcing_qnet_min             =  -1.8375684712728E+02
(PID.TID 0000.0001) %MON forcing_qnet_mean            =  -1.6612621647629E+01
(PID.TID 0000.0001) %MON forcing_qnet_sd              =   1.1139030190430E+02
(PID.TID 0000.0001) %MON forcing_qnet_del2            =   1.0017615545299E+00
(PID.TID 0000.0001) %MON forcing_qsw_max              =   0.0000000000000E+00
(PID.TID 0000.0001) %MON forcing_qsw_min              =   0.0000000000000E+00
(PID.TID 0000.0001) %MON forcing_qsw_mean             =   0.0000000000000E+00
(PID.TID 0000.0001) %MON forcing_qsw_sd               =   0.0000000000000E+00
(PID.TID 0000.0001) %MON forcing_qsw_del2             =   0.0000000000000E+00
(PID.TID 0000.0001) %MON forcing_empmr_max            =   8.1889273909989E-05
(PID.TID 0000.0001) %MON forcing_empmr_min            =  -7.2333472189712E-05
(PID.TID 0000.0001) %MON forcing_empmr_mean           =   8.4477900014659E-07
(PID.TID 0000.0001) %MON forcing_empmr_sd             =   2.8146998273902E-05
(PID.TID 0000.0001) %MON forcing_empmr_del2           =   3.6268469487418E-07
(PID.TID 0000.0001) %MON forcing_fu_max               =   2.6985520720482E-01
(PID.TID 0000.0001) %MON forcing_fu_min               =  -1.6437321007252E-01
(PID.TID 0000.0001) %MON forcing_fu_mean              =   1.6063277720863E-02
(PID.TID 0000.0001) %MON forcing_fu_sd                =   9.0275341241088E-02
(PID.TID 0000.0001) %MON forcing_fu_del2              =   6.7327842425542E-04
(PID.TID 0000.0001) %MON forcing_fv_max               =   2.1808207929134E-01
(PID.TID 0000.0001) %MON forcing_fv_min               =  -1.8281415998936E-01
(PID.TID 0000.0001) %MON forcing_fv_mean              =  -5.8489979543916E-03
(PID.TID 0000.0001) %MON forcing_fv_sd                =   4.6198708258185E-02
(PID.TID 0000.0001) %MON forcing_fv_del2              =   4.5690396795039E-04
(PID.TID 0000.0001) %MON trAdv_CFL_u_max              =   4.4092086753703E-02
(PID.TID 0000.0001) %MON trAdv_CFL_v_max              =   2.0807752132221E-02
(PID.TID 0000.0001) %MON trAdv_CFL_w_max              =   7.0629642817920E-02
(PID.TID 0000.0001) %MON advcfl_uvel_max              =   4.7108541018666E-02
(PID.TID 0000.0001) %MON advcfl_vvel_max              =   2.2034017781662E-02
(PID.TID 0000.0001) %MON advcfl_wvel_max              =   8.0796112021027E-02
(PID.TID 0000.0001) %MON advcfl_W_hf_max              =   9.1427179392215E-02
(PID.TID 0000.0001) %MON pe_b_mean                    =   4.5734144481534E-04
(PID.TID 0000.0001) %MON ke_max                       =   1.1391114696117E-02
(PID.TID 0000.0001) %MON ke_mean                      =   1.0342226011441E-04
(PID.TID 0000.0001) %MON ke_vol                       =   1.3226782436723E+18
(PID.TID 0000.0001) %MON vort_r_min                   =  -4.4929976261724E-07
(PID.TID 0000.0001) %MON vort_r_max                   =   4.5263977690876E-07
(PID.TID 0000.0001) %MON vort_a_mean                  =  -2.5274806772645E-05
(PID.TID 0000.0001) %MON vort_a_sd                    =   7.3604875825536E-05
(PID.TID 0000.0001) %MON vort_p_mean                  =  -3.1845655012232E-05
(PID.TID 0000.0001) %MON vort_p_sd                    =   1.3162392162038E-04
(PID.TID 0000.0001) %MON surfExpan_theta_mean         =   4.4142669666111E-06
(PID.TID 0000.0001) %MON surfExpan_salt_mean          =   1.0324768560138E-07
(PID.TID 0000.0001) // =======================================================
(PID.TID 0000.0001) // End MONITOR dynamic field statistics
(PID.TID 0000.0001) // =======================================================
 EXTERNAL_FIELDS_LOAD,         8 : iP,iLd,i0,i1=   12    1   12    1 ; Wght=  0.2333333333  0.7666666667
 EXTERNAL_FIELDS_LOAD: (fu0,1),fu,fv= -4.5368E-02 -3.5633E-02 -3.7904E-02 -6.0288E-02
 EXTERNAL_FIELDS_LOAD: SST,SSS,Q,E-P=  5.3596E-01  3.4551E+01  2.6546E+02  1.1266E-05
DEBUG_STATS_RL:          Uvel (THERMODYNAMICS)  min= -9.01233315116389E-02
DEBUG_STATS_RL:          Uvel (THERMODYNAMICS)  max=  1.47577084034950E-01
DEBUG_STATS_RL:          Uvel (THERMODYNAMICS) mean=  5.67982261249531E-03
DEBUG_STATS_RL:          Uvel (THERMODYNAMICS) S.D.=  1.75285450692909E-02
DEBUG_STATS_RL:          Vvel (THERMODYNAMICS)  min= -1.13411408553662E-01
DEBUG_STATS_RL:          Vvel (THERMODYNAMICS)  max=  8.92481190970478E-02
DEBUG_STATS_RL:          Vvel (THERMODYNAMICS) mean= -2.17713832434258E-03
DEBUG_STATS_RL:          Vvel (THERMODYNAMICS) S.D.=  1.56051225414677E-02
DEBUG_STATS_RL:          Wvel (THERMODYNAMICS)  min= -1.98483105321124E-04
DEBUG_STATS_RL:          Wvel (THERMODYNAMICS)  max=  2.35051158094414E-04
DEBUG_STATS_RL:          Wvel (THERMODYNAMICS) mean= -7.87763946957301E-07
DEBUG_STATS_RL:          Wvel (THERMODYNAMICS) S.D.=  2.32908466668201E-05
DEBUG_STATS_RL:         Theta (THERMODYNAMICS)  min= -1.92302534764671E+00
DEBUG_STATS_RL:         Theta (THERMODYNAMICS)  max=  2.98534093105053E+01
DEBUG_STATS_RL:         Theta (THERMODYNAMICS) mean=  3.21302701569179E+00
DEBUG_STATS_RL:         Theta (THERMODYNAMICS) S.D.=  5.85083535043152E+00
DEBUG_STATS_RL:          Salt (THERMODYNAMICS)  min=  1.00000000000000E-02
DEBUG_STATS_RL:          Salt (THERMODYNAMICS)  max=  3.74460992728164E+01
DEBUG_STATS_RL:          Salt (THERMODYNAMICS) mean=  1.88551615741289E+01
DEBUG_STATS_RL:          Salt (THERMODYNAMICS) S.D.=  1.73006340985341E+01
DEBUG_STATS_RL:         GtNm1 (THERMODYNAMICS)  min= -3.73606064408843E-06
DEBUG_STATS_RL:         GtNm1 (THERMODYNAMICS)  max=  2.85815241972016E-06
DEBUG_STATS_RL:         GtNm1 (THERMODYNAMICS) mean=  2.23550137571147E-08
DEBUG_STATS_RL:         GtNm1 (THERMODYNAMICS) S.D.=  2.70281947185129E-07
DEBUG_STATS_RL:         GsNm1 (THERMODYNAMICS)  min= -4.77905030362023E-07
DEBUG_STATS_RL:         GsNm1 (THERMODYNAMICS)  max=  4.43382452984447E-07
DEBUG_STATS_RL:         GsNm1 (THERMODYNAMICS) mean=  4.02510755099178E-11
DEBUG_STATS_RL:         GsNm1 (THERMODYNAMICS) S.D.=  2.21838749868103E-08
DEBUG_STATS_RL:                EtaN (DYNAMICS)  min= -1.17749996445517E+00
DEBUG_STATS_RL:                EtaN (DYNAMICS)  max=  2.80727814612612E+00
DEBUG_STATS_RL:                EtaN (DYNAMICS) mean= -1.13590688764789E-01
DEBUG_STATS_RL:                EtaN (DYNAMICS) S.D.=  6.12110009138664E-01
DEBUG_STATS_RL:                Uvel (DYNAMICS)  min= -9.01233315116389E-02
DEBUG_STATS_RL:                Uvel (DYNAMICS)  max=  1.47577084034950E-01
DEBUG_STATS_RL:                Uvel (DYNAMICS) mean=  5.67982261249531E-03
DEBUG_STATS_RL:                Uvel (DYNAMICS) S.D.=  1.75285450692909E-02
DEBUG_STATS_RL:                Vvel (DYNAMICS)  min= -1.13411408553662E-01
DEBUG_STATS_RL:                Vvel (DYNAMICS)  max=  8.92481190970478E-02
DEBUG_STATS_RL:                Vvel (DYNAMICS) mean= -2.17713832434258E-03
DEBUG_STATS_RL:                Vvel (DYNAMICS) S.D.=  1.56051225414677E-02
DEBUG_STATS_RL:                Wvel (DYNAMICS)  min= -1.98483105321124E-04
DEBUG_STATS_RL:                Wvel (DYNAMICS)  max=  2.35051158094414E-04
DEBUG_STATS_RL:                Wvel (DYNAMICS) mean= -7.87763946957301E-07
DEBUG_STATS_RL:                Wvel (DYNAMICS) S.D.=  2.32908466668201E-05
DEBUG_STATS_RL:               Theta (DYNAMICS)  min= -1.92302534764671E+00
DEBUG_STATS_RL:               Theta (DYNAMICS)  max=  2.98534093105053E+01
DEBUG_STATS_RL:               Theta (DYNAMICS) mean=  3.21302701569179E+00
DEBUG_STATS_RL:               Theta (DYNAMICS) S.D.=  5.85083535043152E+00
DEBUG_STATS_RL:                Salt (DYNAMICS)  min=  1.00000000000000E-02
DEBUG_STATS_RL:                Salt (DYNAMICS)  max=  3.74460992728164E+01
DEBUG_STATS_RL:                Salt (DYNAMICS) mean=  1.88551615741289E+01
DEBUG_STATS_RL:                Salt (DYNAMICS) S.D.=  1.73006340985341E+01
DEBUG_STATS_RL:                  Gu (DYNAMICS)  min= -9.19455031709417E-02
DEBUG_STATS_RL:                  Gu (DYNAMICS)  max=  1.57226032921253E-01
DEBUG_STATS_RL:                  Gu (DYNAMICS) mean=  4.87932483741115E-03
DEBUG_STATS_RL:                  Gu (DYNAMICS) S.D.=  1.93357325994515E-02
DEBUG_STATS_RL:                  Gv (DYNAMICS)  min= -9.54478451509760E-02
DEBUG_STATS_RL:                  Gv (DYNAMICS)  max=  9.42490852869158E-02
DEBUG_STATS_RL:                  Gv (DYNAMICS) mean= -6.01650686071122E-04
DEBUG_STATS_RL:                  Gv (DYNAMICS) S.D.=  1.49011620207964E-02
DEBUG_STATS_RL:               GuNm1 (DYNAMICS)  min= -6.85186336799637E-06
DEBUG_STATS_RL:               GuNm1 (DYNAMICS)  max=  7.43722284888168E-06
DEBUG_STATS_RL:               GuNm1 (DYNAMICS) mean= -3.31159454416155E-08
DEBUG_STATS_RL:               GuNm1 (DYNAMICS) S.D.=  1.18423744348346E-06
DEBUG_STATS_RL:               GvNm1 (DYNAMICS)  min= -9.94448545485388E-06
DEBUG_STATS_RL:               GvNm1 (DYNAMICS)  max=  1.63989635992414E-05
DEBUG_STATS_RL:               GvNm1 (DYNAMICS) mean=  7.78209376374800E-07
DEBUG_STATS_RL:               GvNm1 (DYNAMICS) S.D.=  2.68285959015083E-06
DEBUG_STATS_RL:               GtNm1 (DYNAMICS)  min= -3.73606064408843E-06
DEBUG_STATS_RL:               GtNm1 (DYNAMICS)  max=  2.85815241972016E-06
DEBUG_STATS_RL:               GtNm1 (DYNAMICS) mean=  2.23550137571147E-08
DEBUG_STATS_RL:               GtNm1 (DYNAMICS) S.D.=  2.70281947185129E-07
DEBUG_STATS_RL:               GsNm1 (DYNAMICS)  min= -4.77905030362023E-07
DEBUG_STATS_RL:               GsNm1 (DYNAMICS)  max=  4.43382452984447E-07
DEBUG_STATS_RL:               GsNm1 (DYNAMICS) mean=  4.02510755099178E-11
DEBUG_STATS_RL:               GsNm1 (DYNAMICS) S.D.=  2.21838749868103E-08
DEBUG_STATS_RL:    cg2d_b (SOLVE_FOR_PRESSURE)  min= -1.93276417350662E+04
DEBUG_STATS_RL:    cg2d_b (SOLVE_FOR_PRESSURE)  max=  1.51750345543239E+04
DEBUG_STATS_RL:    cg2d_b (SOLVE_FOR_PRESSURE) mean=  5.87195746254736E-01
DEBUG_STATS_RL:    cg2d_b (SOLVE_FOR_PRESSURE) S.D.=  3.67193411750228E+03
 cg2d: Sum(rhs),rhsMax =   7.03323339295278E-02  1.26949125748408E+00
(PID.TID 0000.0001)  cg2d: iter=     1 ; resid.=  6.91831889248098E-01
(PID.TID 0000.0001)  cg2d: iter=     2 ; resid.=  9.22700129380142E-01
(PID.TID 0000.0001)  cg2d: iter=     3 ; resid.=  7.20613329618240E-01
(PID.TID 0000.0001)  cg2d: iter=     4 ; resid.=  5.75481026018288E-01
(PID.TID 0000.0001)  cg2d: iter=     5 ; resid.=  4.90027078633734E-01
(PID.TID 0000.0001)  cg2d: iter=     6 ; resid.=  3.64148572339543E-01
(PID.TID 0000.0001)  cg2d: iter=     7 ; resid.=  2.83419869103793E-01
(PID.TID 0000.0001)  cg2d: iter=     8 ; resid.=  2.33879134649281E-01
(PID.TID 0000.0001)  cg2d: iter=     9 ; resid.=  2.11062160893879E-01
(PID.TID 0000.0001)  cg2d: iter=    10 ; resid.=  1.86263704675860E-01
(PID.TID 0000.0001)  cg2d: iter=    11 ; resid.=  1.50248598941579E-01
(PID.TID 0000.0001)  cg2d: iter=    12 ; resid.=  1.21089785656377E-01
(PID.TID 0000.0001)  cg2d: iter=    13 ; resid.=  1.10218159710555E-01
(PID.TID 0000.0001)  cg2d: iter=    14 ; resid.=  1.03003543666194E-01
(PID.TID 0000.0001)  cg2d: iter=    15 ; resid.=  9.08722290936456E-02
(PID.TID 0000.0001)  cg2d: iter=    16 ; resid.=  8.24782656869239E-02
(PID.TID 0000.0001)  cg2d: iter=    17 ; resid.=  6.68549520795917E-02
(PID.TID 0000.0001)  cg2d: iter=    18 ; resid.=  4.78715884374787E-02
(PID.TID 0000.0001)  cg2d: iter=    19 ; resid.=  3.48036296064218E-02
(PID.TID 0000.0001)  cg2d: iter=    20 ; resid.=  2.65206305016627E-02
(PID.TID 0000.0001)  cg2d: iter=    21 ; resid.=  2.26349059869305E-02
(PID.TID 0000.0001)  cg2d: iter=    22 ; resid.=  1.95954383950789E-02
(PID.TID 0000.0001)  cg2d: iter=    23 ; resid.=  1.61522012393031E-02
(PID.TID 0000.0001)  cg2d: iter=    24 ; resid.=  1.36643912854783E-02
(PID.TID 0000.0001)  cg2d: iter=    25 ; resid.=  1.00089052931603E-02
(PID.TID 0000.0001)  cg2d: iter=    26 ; resid.=  8.82042604471654E-03
(PID.TID 0000.0001)  cg2d: iter=    27 ; resid.=  8.33161421022195E-03
(PID.TID 0000.0001)  cg2d: iter=    28 ; resid.=  7.60374642075972E-03
(PID.TID 0000.0001)  cg2d: iter=    29 ; resid.=  6.51329576191143E-03
(PID.TID 0000.0001)  cg2d: iter=    30 ; resid.=  5.74881438404157E-03
(PID.TID 0000.0001)  cg2d: iter=    31 ; resid.=  4.62867995263585E-03
(PID.TID 0000.0001)  cg2d: iter=    32 ; resid.=  3.57710013007239E-03
(PID.TID 0000.0001)  cg2d: iter=    33 ; resid.=  3.12234076153880E-03
(PID.TID 0000.0001)  cg2d: iter=    34 ; resid.=  2.59768308659298E-03
(PID.TID 0000.0001)  cg2d: iter=    35 ; resid.=  2.02719446307568E-03
(PID.TID 0000.0001)  cg2d: iter=    36 ; resid.=  1.78778736472240E-03
(PID.TID 0000.0001)  cg2d: iter=    37 ; resid.=  1.53272976533059E-03
(PID.TID 0000.0001)  cg2d: iter=    38 ; resid.=  1.23882766903172E-03
(PID.TID 0000.0001)  cg2d: iter=    39 ; resid.=  9.66478487505553E-04
(PID.TID 0000.0001)  cg2d: iter=    40 ; resid.=  8.92260976158519E-04
(PID.TID 0000.0001)  cg2d: iter=    41 ; resid.=  7.52759182132996E-04
(PID.TID 0000.0001)  cg2d: iter=    42 ; resid.=  6.99167918361773E-04
(PID.TID 0000.0001)  cg2d: iter=    43 ; resid.=  5.43316009398667E-04
(PID.TID 0000.0001)  cg2d: iter=    44 ; resid.=  4.20242817079689E-04
(PID.TID 0000.0001)  cg2d: iter=    45 ; resid.=  3.46269594290699E-04
(PID.TID 0000.0001)  cg2d: iter=    46 ; resid.=  3.11016159927232E-04
(PID.TID 0000.0001)  cg2d: iter=    47 ; resid.=  2.86368729377982E-04
(PID.TID 0000.0001)  cg2d: iter=    48 ; resid.=  2.33412347407751E-04
(PID.TID 0000.0001)  cg2d: iter=    49 ; resid.=  1.68902372287494E-04
(PID.TID 0000.0001)  cg2d: iter=    50 ; resid.=  1.42620786538519E-04
(PID.TID 0000.0001)  cg2d: iter=    51 ; resid.=  1.21834130198296E-04
(PID.TID 0000.0001)  cg2d: iter=    52 ; resid.=  1.06686296223172E-04
(PID.TID 0000.0001)  cg2d: iter=    53 ; resid.=  8.73309436405665E-05
(PID.TID 0000.0001)  cg2d: iter=    54 ; resid.=  6.69412220630086E-05
(PID.TID 0000.0001)  cg2d: iter=    55 ; resid.=  5.23923069025848E-05
(PID.TID 0000.0001)  cg2d: iter=    56 ; resid.=  4.06316396396495E-05
(PID.TID 0000.0001)  cg2d: iter=    57 ; resid.=  3.35650015736249E-05
(PID.TID 0000.0001)  cg2d: iter=    58 ; resid.=  2.64060848280697E-05
(PID.TID 0000.0001)  cg2d: iter=    59 ; resid.=  2.32963852905142E-05
(PID.TID 0000.0001)  cg2d: iter=    60 ; resid.=  1.94368749194025E-05
(PID.TID 0000.0001)  cg2d: iter=    61 ; resid.=  1.59943839692446E-05
(PID.TID 0000.0001)  cg2d: iter=    62 ; resid.=  1.27980331140873E-05
(PID.TID 0000.0001)  cg2d: iter=    63 ; resid.=  1.17907553865061E-05
(PID.TID 0000.0001)  cg2d: iter=    64 ; resid.=  1.10802298717509E-05
(PID.TID 0000.0001)  cg2d: iter=    65 ; resid.=  8.66967468260764E-06
(PID.TID 0000.0001)  cg2d: iter=    66 ; resid.=  6.44802712465888E-06
(PID.TID 0000.0001)  cg2d: iter=    67 ; resid.=  5.28521329810743E-06
(PID.TID 0000.0001)  cg2d: iter=    68 ; resid.=  4.70791292599163E-06
(PID.TID 0000.0001)  cg2d: iter=    69 ; resid.=  4.22312514156782E-06
(PID.TID 0000.0001)  cg2d: iter=    70 ; resid.=  3.47064448153060E-06
(PID.TID 0000.0001)  cg2d: iter=    71 ; resid.=  2.80925851005956E-06
(PID.TID 0000.0001)  cg2d: iter=    72 ; resid.=  2.28748487329392E-06
(PID.TID 0000.0001)  cg2d: iter=    73 ; resid.=  1.93684958687321E-06
(PID.TID 0000.0001)  cg2d: iter=    74 ; resid.=  1.45442695985183E-06
(PID.TID 0000.0001)  cg2d: iter=    75 ; resid.=  1.15785799617671E-06
(PID.TID 0000.0001)  cg2d: iter=    76 ; resid.=  9.45760312144141E-07
(PID.TID 0000.0001)  cg2d: iter=    77 ; resid.=  8.00886661101772E-07
(PID.TID 0000.0001)  cg2d: iter=    78 ; resid.=  6.44884179513519E-07
(PID.TID 0000.0001)  cg2d: iter=    79 ; resid.=  4.92807645543884E-07
(PID.TID 0000.0001)  cg2d: iter=    80 ; resid.=  3.78042665287599E-07
(PID.TID 0000.0001)  cg2d: iter=    81 ; resid.=  2.92102944537929E-07
(PID.TID 0000.0001)  cg2d: iter=    82 ; resid.=  2.30776918354081E-07
(PID.TID 0000.0001)  cg2d: iter=    83 ; resid.=  1.97067472949657E-07
(PID.TID 0000.0001)  cg2d: iter=    84 ; resid.=  1.57301962061046E-07
(PID.TID 0000.0001)  cg2d: iter=    85 ; resid.=  1.23389972938119E-07
(PID.TID 0000.0001)  cg2d: iter=    86 ; resid.=  1.05956639760150E-07
(PID.TID 0000.0001)  cg2d: iter=    87 ; resid.=  8.88184098487818E-08
(PID.TID 0000.0001)  cg2d: iter=    88 ; resid.=  7.43298209196968E-08
(PID.TID 0000.0001)  cg2d: iter=    89 ; resid.=  5.59165436013092E-08
(PID.TID 0000.0001)  cg2d: iter=    90 ; resid.=  4.20716770899228E-08
(PID.TID 0000.0001)  cg2d: iter=    91 ; resid.=  3.20273181600047E-08
(PID.TID 0000.0001)  cg2d: iter=    92 ; resid.=  2.37591332033819E-08
(PID.TID 0000.0001)  cg2d: iter=    93 ; resid.=  1.76611877386369E-08
(PID.TID 0000.0001)  cg2d: iter=    94 ; resid.=  1.40197991578999E-08
(PID.TID 0000.0001)  cg2d: iter=    95 ; resid.=  1.15396329098146E-08
(PID.TID 0000.0001)  cg2d: iter=    96 ; resid.=  8.21793341337520E-09
(PID.TID 0000.0001)  cg2d: iter=    97 ; resid.=  6.79465733316110E-09
(PID.TID 0000.0001)  cg2d: iter=    98 ; resid.=  5.45764266561168E-09
(PID.TID 0000.0001)  cg2d: iter=    99 ; resid.=  4.33867282194297E-09
(PID.TID 0000.0001)  cg2d: iter=   100 ; resid.=  3.42092462487264E-09
(PID.TID 0000.0001)  cg2d: iter=   101 ; resid.=  2.69139145023345E-09
(PID.TID 0000.0001)  cg2d: iter=   102 ; resid.=  2.43183678841712E-09
(PID.TID 0000.0001)  cg2d: iter=   103 ; resid.=  2.13877320872765E-09
(PID.TID 0000.0001)  cg2d: iter=   104 ; resid.=  1.86626542746563E-09
(PID.TID 0000.0001)  cg2d: iter=   105 ; resid.=  1.46541268941646E-09
(PID.TID 0000.0001)  cg2d: iter=   106 ; resid.=  1.18690407831028E-09
(PID.TID 0000.0001)  cg2d: iter=   107 ; resid.=  9.05885018089614E-10
(PID.TID 0000.0001)  cg2d: iter=   108 ; resid.=  6.78958823968582E-10
(PID.TID 0000.0001)  cg2d: iter=   109 ; resid.=  5.41085299247885E-10
(PID.TID 0000.0001)  cg2d: iter=   110 ; resid.=  4.60523340976727E-10
(PID.TID 0000.0001)  cg2d: iter=   111 ; resid.=  3.53021891821266E-10
(PID.TID 0000.0001)  cg2d: iter=   112 ; resid.=  2.64277249511685E-10
(PID.TID 0000.0001)  cg2d: iter=   113 ; resid.=  2.10953432584633E-10
(PID.TID 0000.0001)  cg2d: iter=   114 ; resid.=  1.64753190987775E-10
(PID.TID 0000.0001)  cg2d: iter=   115 ; resid.=  1.30456070640568E-10
(PID.TID 0000.0001)  cg2d: iter=   116 ; resid.=  9.63090339454656E-11
(PID.TID 0000.0001)  cg2d: iter=   117 ; resid.=  7.50121122386528E-11
(PID.TID 0000.0001)  cg2d: iter=   118 ; resid.=  5.69654027584213E-11
(PID.TID 0000.0001)  cg2d: iter=   119 ; resid.=  4.44994612187521E-11
(PID.TID 0000.0001)  cg2d: iter=   120 ; resid.=  3.51893330223837E-11
(PID.TID 0000.0001)  cg2d: iter=   121 ; resid.=  2.56665411205091E-11
(PID.TID 0000.0001)  cg2d: iter=   122 ; resid.=  1.74486057774731E-11
(PID.TID 0000.0001)  cg2d: iter=   123 ; resid.=  1.22191273571643E-11
(PID.TID 0000.0001)  cg2d: iter=   124 ; resid.=  8.15921783756285E-12
(PID.TID 0000.0001)  cg2d: iter=   125 ; resid.=  5.88841644499372E-12
(PID.TID 0000.0001)  cg2d: iter=   126 ; resid.=  4.04044382632542E-12
(PID.TID 0000.0001)  cg2d: iter=   127 ; resid.=  3.07309322015401E-12
(PID.TID 0000.0001)  cg2d: iter=   128 ; resid.=  2.58143945419442E-12
(PID.TID 0000.0001)  cg2d: iter=   129 ; resid.=  1.99734616779953E-12
(PID.TID 0000.0001)  cg2d: iter=   130 ; resid.=  1.58017419879775E-12
(PID.TID 0000.0001)  cg2d: iter=   131 ; resid.=  1.23567909976855E-12
(PID.TID 0000.0001)  cg2d: iter=   132 ; resid.=  9.24335814250124E-13
(PID.TID 0000.0001)  cg2d: iter=   133 ; resid.=  6.87505724242386E-13
(PID.TID 0000.0001)  cg2d: iter=   134 ; resid.=  5.63144695126465E-13
(PID.TID 0000.0001)  cg2d: iter=   135 ; resid.=  4.35853341407481E-13
(PID.TID 0000.0001)  cg2d: iter=   136 ; resid.=  3.02062790652770E-13
(PID.TID 0000.0001)  cg2d: iter=   137 ; resid.=  2.05812761571115E-13
(PID.TID 0000.0001)  cg2d: iter=   138 ; resid.=  1.44779672641741E-13
(PID.TID 0000.0001)  cg2d: iter=   139 ; resid.=  1.16374474105547E-13
(PID.TID 0000.0001)  cg2d: iter=   140 ; resid.=  9.04058396195188E-14
DEBUG_STATS_RL:    cg2d_x (SOLVE_FOR_PRESSURE)  min= -1.52417313972887E+01
DEBUG_STATS_RL:    cg2d_x (SOLVE_FOR_PRESSURE)  max=  2.67642076363870E+01
DEBUG_STATS_RL:    cg2d_x (SOLVE_FOR_PRESSURE) mean= -1.35758613434785E+00
DEBUG_STATS_RL:    cg2d_x (SOLVE_FOR_PRESSURE) S.D.=  6.21884361659583E+00
(PID.TID 0000.0001)      cg2d_init_res =   1.00624627179564E+00
(PID.TID 0000.0001)      cg2d_iters(min,last) =      -1     140
(PID.TID 0000.0001)      cg2d_last_res =   9.04058396195188E-14
(PID.TID 0000.0001) // =======================================================
(PID.TID 0000.0001) // Begin MONITOR dynamic field statistics
(PID.TID 0000.0001) // =======================================================
(PID.TID 0000.0001) %MON time_tsnumber                =                     9
(PID.TID 0000.0001) %MON time_secondsf                =   7.7760000000000E+05
(PID.TID 0000.0001) %MON dynstat_eta_max              =   2.7282576591628E+00
(PID.TID 0000.0001) %MON dynstat_eta_min              =  -1.5536933126686E+00
(PID.TID 0000.0001) %MON dynstat_eta_mean             =  -6.1266595134826E-04
(PID.TID 0000.0001) %MON dynstat_eta_sd               =   5.9317234234114E-01
(PID.TID 0000.0001) %MON dynstat_eta_del2             =   2.0599999068033E-03
(PID.TID 0000.0001) %MON dynstat_uvel_max             =   1.5969526207123E-01
(PID.TID 0000.0001) %MON dynstat_uvel_min             =  -8.3788127713668E-02
(PID.TID 0000.0001) %MON dynstat_uvel_mean            =   2.0921882357476E-03
(PID.TID 0000.0001) %MON dynstat_uvel_sd              =   1.1724403212954E-02
(PID.TID 0000.0001) %MON dynstat_uvel_del2            =   8.7013176932841E-05
(PID.TID 0000.0001) %MON dynstat_vvel_max             =   9.4933000810814E-02
(PID.TID 0000.0001) %MON dynstat_vvel_min             =  -1.1369465319889E-01
(PID.TID 0000.0001) %MON dynstat_vvel_mean            =  -1.8761732151413E-04
(PID.TID 0000.0001) %MON dynstat_vvel_sd              =   1.0655213338070E-02
(PID.TID 0000.0001) %MON dynstat_vvel_del2            =   1.0755801369773E-04
(PID.TID 0000.0001) %MON dynstat_wvel_max             =   2.3066845263689E-04
(PID.TID 0000.0001) %MON dynstat_wvel_min             =  -2.0785224754386E-04
(PID.TID 0000.0001) %MON dynstat_wvel_mean            =   3.3831961252829E-23
(PID.TID 0000.0001) %MON dynstat_wvel_sd              =   2.4306120720798E-05
(PID.TID 0000.0001) %MON dynstat_wvel_del2            =   2.9310759851496E-07
(PID.TID 0000.0001) %MON dynstat_theta_max            =   2.9853409310505E+01
(PID.TID 0000.0001) %MON dynstat_theta_min            =  -1.9230253476467E+00
(PID.TID 0000.0001) %MON dynstat_theta_mean           =   3.6295255280894E+00
(PID.TID 0000.0001) %MON dynstat_theta_sd             =   4.4153936866203E+00
(PID.TID 0000.0001) %MON dynstat_theta_del2           =   5.1294381251506E-03
(PID.TID 0000.0001) %MON dynstat_salt_max             =   3.7446099272816E+01
(PID.TID 0000.0001) %MON dynstat_salt_min             =   2.9778459407852E+01
(PID.TID 0000.0001) %MON dynstat_salt_mean            =   3.4727982655747E+01
(PID.TID 0000.0001) %MON dynstat_salt_sd              =   2.9615094954401E-01
(PID.TID 0000.0001) %MON dynstat_salt_del2            =   1.0105973640360E-03
(PID.TID 0000.0001) %MON dynstat_sst_max              =   2.9853409310505E+01
(PID.TID 0000.0001) %MON dynstat_sst_min              =  -1.9230253476467E+00
(PID.TID 0000.0001) %MON dynstat_sst_mean             =   1.8600412071832E+01
(PID.TID 0000.0001) %MON dynstat_sst_sd               =   9.0931513163845E+00
(PID.TID 0000.0001) %MON dynstat_sst_del2             =   2.6208633298859E-02
(PID.TID 0000.0001) %MON dynstat_sss_max              =   3.7441524281607E+01
(PID.TID 0000.0001) %MON dynstat_sss_min              =   2.9778459407852E+01
(PID.TID 0000.0001) %MON dynstat_sss_mean             =   3.4863578155653E+01
(PID.TID 0000.0001) %MON dynstat_sss_sd               =   9.6696824210699E-01
(PID.TID 0000.0001) %MON dynstat_sss_del2             =   8.0065343201680E-03
(PID.TID 0000.0001) %MON forcing_qnet_max             =   4.3427630615234E+02
(PID.TID 0000.0001) %MON forcing_qnet_min             =  -1.8328968454997E+02
(PID.TID 0000.0001) %MON forcing_qnet_mean            =  -1.6600109691805E+01
(PID.TID 0000.0001) %MON forcing_qnet_sd              =   1.1119125063866E+02
(PID.TID 0000.0001) %MON forcing_qnet_del2            =   1.0040237369794E+00
(PID.TID 0000.0001) %MON forcing_qsw_max              =   0.0000000000000E+00
(PID.TID 0000.0001) %MON forcing_qsw_min              =   0.0000000000000E+00
(PID.TID 0000.0001) %MON forcing_qsw_mean             =   0.0000000000000E+00
(PID.TID 0000.0001) %MON forcing_qsw_sd               =   0.0000000000000E+00
(PID.TID 0000.0001) %MON forcing_qsw_del2             =   0.0000000000000E+00
(PID.TID 0000.0001) %MON forcing_empmr_max            =   8.1890940369552E-05
(PID.TID 0000.0001) %MON forcing_empmr_min            =  -7.2715819499081E-05
(PID.TID 0000.0001) %MON forcing_empmr_mean           =   8.5454875789209E-07
(PID.TID 0000.0001) %MON forcing_empmr_sd             =   2.8214283860046E-05
(PID.TID 0000.0001) %MON forcing_empmr_del2           =   3.6290034923196E-07
(PID.TID 0000.0001) %MON forcing_fu_max               =   2.6993649601936E-01
(PID.TID 0000.0001) %MON forcing_fu_min               =  -1.6518663018942E-01
(PID.TID 0000.0001) %MON forcing_fu_mean              =   1.6055584899826E-02
(PID.TID 0000.0001) %MON forcing_fu_sd                =   9.0336157001452E-02
(PID.TID 0000.0001) %MON forcing_fu_del2              =   6.7811877937571E-04
(PID.TID 0000.0001) %MON forcing_fv_max               =   2.1996198445559E-01
(PID.TID 0000.0001) %MON forcing_fv_min               =  -1.8222950249910E-01
(PID.TID 0000.0001) %MON forcing_fv_mean              =  -5.7752354275307E-03
(PID.TID 0000.0001) %MON forcing_fv_sd                =   4.6406538642117E-02
(PID.TID 0000.0001) %MON forcing_fv_del2              =   4.6058148956476E-04
(PID.TID 0000.0001) %MON trAdv_CFL_u_max              =   4.7118109100273E-02
(PID.TID 0000.0001) %MON trAdv_CFL_v_max              =   2.1332537946313E-02
(PID.TID 0000.0001) %MON trAdv_CFL_w_max              =   7.2839871806107E-02
(PID.TID 0000.0001) %MON advcfl_uvel_max              =   4.9219846257022E-02
(PID.TID 0000.0001) %MON advcfl_vvel_max              =   2.2089047673532E-02
(PID.TID 0000.0001) %MON advcfl_wvel_max              =   8.0233362009324E-02
(PID.TID 0000.0001) %MON advcfl_W_hf_max              =   9.0790383326340E-02
(PID.TID 0000.0001) %MON pe_b_mean                    =   4.5023935097326E-04
(PID.TID 0000.0001) %MON ke_max                       =   1.2955045535766E-02
(PID.TID 0000.0001) %MON ke_mean                      =   1.1542555106506E-04
(PID.TID 0000.0001) %MON ke_vol                       =   1.3226782436723E+18
(PID.TID 0000.0001) %MON vort_r_min                   =  -4.4128465292735E-07
(PID.TID 0000.0001) %MON vort_r_max                   =   4.1889860677732E-07
(PID.TID 0000.0001) %MON vort_a_mean                  =  -2.5274806558665E-05
(PID.TID 0000.0001) %MON vort_a_sd                    =   7.3604858489909E-05
(PID.TID 0000.0001) %MON vort_p_mean                  =  -3.1845654742622E-05
(PID.TID 0000.0001) %MON vort_p_sd                    =   1.3162365378363E-04
(PID.TID 0000.0001) %MON surfExpan_theta_mean         =   5.7189138171841E-06
(PID.TID 0000.0001) %MON surfExpan_salt_mean          =   1.8591115406140E-07
(PID.TID 0000.0001) // =======================================================
(PID.TID 0000.0001) // End MONITOR dynamic field statistics
(PID.TID 0000.0001) // =======================================================
 EXTERNAL_FIELDS_LOAD,         9 : iP,iLd,i0,i1=   12    1   12    1 ; Wght=  0.2000000000  0.8000000000
 EXTERNAL_FIELDS_LOAD: (fu0,1),fu,fv= -4.5368E-02 -3.5633E-02 -3.7580E-02 -5.9855E-02
 EXTERNAL_FIELDS_LOAD: SST,SSS,Q,E-P=  5.9632E-01  3.4574E+01  2.6550E+02  1.1319E-05
DEBUG_STATS_RL:          Uvel (THERMODYNAMICS)  min= -8.37881277136684E-02
DEBUG_STATS_RL:          Uvel (THERMODYNAMICS)  max=  1.59695262071233E-01
DEBUG_STATS_RL:          Uvel (THERMODYNAMICS) mean=  5.83174818706947E-03
DEBUG_STATS_RL:          Uvel (THERMODYNAMICS) S.D.=  1.92717826066473E-02
DEBUG_STATS_RL:          Vvel (THERMODYNAMICS)  min= -1.13694653198890E-01
DEBUG_STATS_RL:          Vvel (THERMODYNAMICS)  max=  9.49330008108143E-02
DEBUG_STATS_RL:          Vvel (THERMODYNAMICS) mean= -1.75051322004473E-03
DEBUG_STATS_RL:          Vvel (THERMODYNAMICS) S.D.=  1.56639451422740E-02
DEBUG_STATS_RL:          Wvel (THERMODYNAMICS)  min= -2.07852247543860E-04
DEBUG_STATS_RL:          Wvel (THERMODYNAMICS)  max=  2.30668452636891E-04
DEBUG_STATS_RL:          Wvel (THERMODYNAMICS) mean= -7.86246129063564E-07
DEBUG_STATS_RL:          Wvel (THERMODYNAMICS) S.D.=  2.25050044931952E-05
DEBUG_STATS_RL:         Theta (THERMODYNAMICS)  min= -1.92095222800287E+00
DEBUG_STATS_RL:         Theta (THERMODYNAMICS)  max=  2.98531338440905E+01
DEBUG_STATS_RL:         Theta (THERMODYNAMICS) mean=  3.21390605870062E+00
DEBUG_STATS_RL:         Theta (THERMODYNAMICS) S.D.=  5.85127262046595E+00
DEBUG_STATS_RL:          Salt (THERMODYNAMICS)  min=  1.00000000000000E-02
DEBUG_STATS_RL:          Salt (THERMODYNAMICS)  max=  3.74464966558020E+01
DEBUG_STATS_RL:          Salt (THERMODYNAMICS) mean=  1.88551603519152E+01
DEBUG_STATS_RL:          Salt (THERMODYNAMICS) S.D.=  1.73006342955582E+01
DEBUG_STATS_RL:         GtNm1 (THERMODYNAMICS)  min= -3.55994203187042E-06
DEBUG_STATS_RL:         GtNm1 (THERMODYNAMICS)  max=  2.88532139758161E-06
DEBUG_STATS_RL:         GtNm1 (THERMODYNAMICS) mean=  2.09891314497885E-08
DEBUG_STATS_RL:         GtNm1 (THERMODYNAMICS) S.D.=  2.71839826309952E-07
DEBUG_STATS_RL:         GsNm1 (THERMODYNAMICS)  min= -4.85681134900348E-07
DEBUG_STATS_RL:         GsNm1 (THERMODYNAMICS)  max=  6.15662084725632E-07
DEBUG_STATS_RL:         GsNm1 (THERMODYNAMICS) mean= -3.28567753554954E-12
DEBUG_STATS_RL:         GsNm1 (THERMODYNAMICS) S.D.=  2.25814272217997E-08
DEBUG_STATS_RL:                EtaN (DYNAMICS)  min= -1.55369331266864E+00
DEBUG_STATS_RL:                EtaN (DYNAMICS)  max=  2.72825765916279E+00
DEBUG_STATS_RL:                EtaN (DYNAMICS) mean= -1.38387985152686E-01
DEBUG_STATS_RL:                EtaN (DYNAMICS) S.D.=  6.33929012904774E-01
DEBUG_STATS_RL:                Uvel (DYNAMICS)  min= -8.37881277136684E-02
DEBUG_STATS_RL:                Uvel (DYNAMICS)  max=  1.59695262071233E-01
DEBUG_STATS_RL:                Uvel (DYNAMICS) mean=  5.83174818706947E-03
DEBUG_STATS_RL:                Uvel (DYNAMICS) S.D.=  1.92717826066473E-02
DEBUG_STATS_RL:                Vvel (DYNAMICS)  min= -1.13694653198890E-01
DEBUG_STATS_RL:                Vvel (DYNAMICS)  max=  9.49330008108143E-02
DEBUG_STATS_RL:                Vvel (DYNAMICS) mean= -1.75051322004473E-03
DEBUG_STATS_RL:                Vvel (DYNAMICS) S.D.=  1.56639451422740E-02
DEBUG_STATS_RL:                Wvel (DYNAMICS)  min= -2.07852247543860E-04
DEBUG_STATS_RL:                Wvel (DYNAMICS)  max=  2.30668452636891E-04
DEBUG_STATS_RL:                Wvel (DYNAMICS) mean= -7.86246129063564E-07
DEBUG_STATS_RL:                Wvel (DYNAMICS) S.D.=  2.25050044931952E-05
DEBUG_STATS_RL:               Theta (DYNAMICS)  min= -1.92095222800287E+00
DEBUG_STATS_RL:               Theta (DYNAMICS)  max=  2.98531338440905E+01
DEBUG_STATS_RL:               Theta (DYNAMICS) mean=  3.21390605870062E+00
DEBUG_STATS_RL:               Theta (DYNAMICS) S.D.=  5.85127262046595E+00
DEBUG_STATS_RL:                Salt (DYNAMICS)  min=  1.00000000000000E-02
DEBUG_STATS_RL:                Salt (DYNAMICS)  max=  3.74464966558020E+01
DEBUG_STATS_RL:                Salt (DYNAMICS) mean=  1.88551603519152E+01
DEBUG_STATS_RL:                Salt (DYNAMICS) S.D.=  1.73006342955582E+01
DEBUG_STATS_RL:                  Gu (DYNAMICS)  min= -8.15455256977140E-02
DEBUG_STATS_RL:                  Gu (DYNAMICS)  max=  1.66589764849514E-01
DEBUG_STATS_RL:                  Gu (DYNAMICS) mean=  4.97236444708056E-03
DEBUG_STATS_RL:                  Gu (DYNAMICS) S.D.=  2.09099764820569E-02
DEBUG_STATS_RL:                  Gv (DYNAMICS)  min= -9.39649197926603E-02
DEBUG_STATS_RL:                  Gv (DYNAMICS)  max=  9.95790437864364E-02
DEBUG_STATS_RL:                  Gv (DYNAMICS) mean= -1.00747158860442E-04
DEBUG_STATS_RL:                  Gv (DYNAMICS) S.D.=  1.48560583864847E-02
DEBUG_STATS_RL:               GuNm1 (DYNAMICS)  min= -6.57413282544538E-06
DEBUG_STATS_RL:               GuNm1 (DYNAMICS)  max=  7.34238297142484E-06
DEBUG_STATS_RL:               GuNm1 (DYNAMICS) mean= -3.18247146766642E-08
DEBUG_STATS_RL:               GuNm1 (DYNAMICS) S.D.=  1.15740244491207E-06
DEBUG_STATS_RL:               GvNm1 (DYNAMICS)  min= -9.58349625184284E-06
DEBUG_STATS_RL:               GvNm1 (DYNAMICS)  max=  1.64614734807077E-05
DEBUG_STATS_RL:               GvNm1 (DYNAMICS) mean=  7.76585252640535E-07
DEBUG_STATS_RL:               GvNm1 (DYNAMICS) S.D.=  2.65442274554860E-06
DEBUG_STATS_RL:               GtNm1 (DYNAMICS)  min= -3.55994203187042E-06
DEBUG_STATS_RL:               GtNm1 (DYNAMICS)  max=  2.88532139758161E-06
DEBUG_STATS_RL:               GtNm1 (DYNAMICS) mean=  2.09891314497885E-08
DEBUG_STATS_RL:               GtNm1 (DYNAMICS) S.D.=  2.71839826309952E-07
DEBUG_STATS_RL:               GsNm1 (DYNAMICS)  min= -4.85681134900348E-07
DEBUG_STATS_RL:               GsNm1 (DYNAMICS)  max=  6.15662084725632E-07
DEBUG_STATS_RL:               GsNm1 (DYNAMICS) mean= -3.28567753554954E-12
DEBUG_STATS_RL:               GsNm1 (DYNAMICS) S.D.=  2.25814272217997E-08
DEBUG_STATS_RL:    cg2d_b (SOLVE_FOR_PRESSURE)  min= -1.79655461141223E+04
DEBUG_STATS_RL:    cg2d_b (SOLVE_FOR_PRESSURE)  max=  1.46594625771077E+04
DEBUG_STATS_RL:    cg2d_b (SOLVE_FOR_PRESSURE) mean=  6.56348004155419E-01
DEBUG_STATS_RL:    cg2d_b (SOLVE_FOR_PRESSURE) S.D.=  3.51036932025037E+03
 cg2d: Sum(rhs),rhsMax =   8.45755325204142E-02  1.18002517019064E+00
(PID.TID 0000.0001)  cg2d: iter=     1 ; resid.=  7.10938803542031E-01
(PID.TID 0000.0001)  cg2d: iter=     2 ; resid.=  8.50178899604334E-01
(PID.TID 0000.0001)  cg2d: iter=     3 ; resid.=  6.62157963532694E-01
(PID.TID 0000.0001)  cg2d: iter=     4 ; resid.=  5.37232466974320E-01
(PID.TID 0000.0001)  cg2d: iter=     5 ; resid.=  4.86286861296558E-01
(PID.TID 0000.0001)  cg2d: iter=     6 ; resid.=  3.57825275104624E-01
(PID.TID 0000.0001)  cg2d: iter=     7 ; resid.=  3.07627873816961E-01
(PID.TID 0000.0001)  cg2d: iter=     8 ; resid.=  2.20258841129927E-01
(PID.TID 0000.0001)  cg2d: iter=     9 ; resid.=  1.84443933309229E-01
(PID.TID 0000.0001)  cg2d: iter=    10 ; resid.=  1.68273880075447E-01
(PID.TID 0000.0001)  cg2d: iter=    11 ; resid.=  1.41911958750750E-01
(PID.TID 0000.0001)  cg2d: iter=    12 ; resid.=  1.11401081960123E-01
(PID.TID 0000.0001)  cg2d: iter=    13 ; resid.=  9.73652268416388E-02
(PID.TID 0000.0001)  cg2d: iter=    14 ; resid.=  8.49209460200449E-02
(PID.TID 0000.0001)  cg2d: iter=    15 ; resid.=  7.48479686306838E-02
(PID.TID 0000.0001)  cg2d: iter=    16 ; resid.=  7.10550165709841E-02
(PID.TID 0000.0001)  cg2d: iter=    17 ; resid.=  6.62575872232126E-02
(PID.TID 0000.0001)  cg2d: iter=    18 ; resid.=  4.88065109536819E-02
(PID.TID 0000.0001)  cg2d: iter=    19 ; resid.=  3.62023057700442E-02
(PID.TID 0000.0001)  cg2d: iter=    20 ; resid.=  2.70210336913144E-02
(PID.TID 0000.0001)  cg2d: iter=    21 ; resid.=  2.29648669149366E-02
(PID.TID 0000.0001)  cg2d: iter=    22 ; resid.=  1.95743598872964E-02
(PID.TID 0000.0001)  cg2d: iter=    23 ; resid.=  1.63716425541197E-02
(PID.TID 0000.0001)  cg2d: iter=    24 ; resid.=  1.47554684972743E-02
(PID.TID 0000.0001)  cg2d: iter=    25 ; resid.=  1.09945425005502E-02
(PID.TID 0000.0001)  cg2d: iter=    26 ; resid.=  9.01857799459455E-03
(PID.TID 0000.0001)  cg2d: iter=    27 ; resid.=  8.09093054043375E-03
(PID.TID 0000.0001)  cg2d: iter=    28 ; resid.=  7.15390765046438E-03
(PID.TID 0000.0001)  cg2d: iter=    29 ; resid.=  6.29342688050438E-03
(PID.TID 0000.0001)  cg2d: iter=    30 ; resid.=  5.85293523099222E-03
(PID.TID 0000.0001)  cg2d: iter=    31 ; resid.=  4.59141157527266E-03
(PID.TID 0000.0001)  cg2d: iter=    32 ; resid.=  3.43675024963208E-03
(PID.TID 0000.0001)  cg2d: iter=    33 ; resid.=  2.97482875073566E-03
(PID.TID 0000.0001)  cg2d: iter=    34 ; resid.=  2.58870548935761E-03
(PID.TID 0000.0001)  cg2d: iter=    35 ; resid.=  2.07429987762438E-03
(PID.TID 0000.0001)  cg2d: iter=    36 ; resid.=  1.95225342012981E-03
(PID.TID 0000.0001)  cg2d: iter=    37 ; resid.=  1.68086998481547E-03
(PID.TID 0000.0001)  cg2d: iter=    38 ; resid.=  1.31444363169621E-03
(PID.TID 0000.0001)  cg2d: iter=    39 ; resid.=  1.07389901285148E-03
(PID.TID 0000.0001)  cg2d: iter=    40 ; resid.=  9.26071186868742E-04
(PID.TID 0000.0001)  cg2d: iter=    41 ; resid.=  7.40076906066815E-04
(PID.TID 0000.0001)  cg2d: iter=    42 ; resid.=  6.37146734714668E-04
(PID.TID 0000.0001)  cg2d: iter=    43 ; resid.=  4.97089910130155E-04
(PID.TID 0000.0001)  cg2d: iter=    44 ; resid.=  3.86431016736059E-04
(PID.TID 0000.0001)  cg2d: iter=    45 ; resid.=  3.32493982816825E-04
(PID.TID 0000.0001)  cg2d: iter=    46 ; resid.=  2.93984841532307E-04
(PID.TID 0000.0001)  cg2d: iter=    47 ; resid.=  2.64551916712340E-04
(PID.TID 0000.0001)  cg2d: iter=    48 ; resid.=  2.23678445492014E-04
(PID.TID 0000.0001)  cg2d: iter=    49 ; resid.=  1.77746620900407E-04
(PID.TID 0000.0001)  cg2d: iter=    50 ; resid.=  1.57827748162212E-04
(PID.TID 0000.0001)  cg2d: iter=    51 ; resid.=  1.28410698705095E-04
(PID.TID 0000.0001)  cg2d: iter=    52 ; resid.=  1.06563458655981E-04
(PID.TID 0000.0001)  cg2d: iter=    53 ; resid.=  8.66356865493713E-05
(PID.TID 0000.0001)  cg2d: iter=    54 ; resid.=  6.87534443715423E-05
(PID.TID 0000.0001)  cg2d: iter=    55 ; resid.=  5.79956032891049E-05
(PID.TID 0000.0001)  cg2d: iter=    56 ; resid.=  4.47643632772056E-05
(PID.TID 0000.0001)  cg2d: iter=    57 ; resid.=  3.45717962424612E-05
(PID.TID 0000.0001)  cg2d: iter=    58 ; resid.=  2.65781055152655E-05
(PID.TID 0000.0001)  cg2d: iter=    59 ; resid.=  2.17074456681889E-05
(PID.TID 0000.0001)  cg2d: iter=    60 ; resid.=  1.79598666700800E-05
(PID.TID 0000.0001)  cg2d: iter=    61 ; resid.=  1.42372174022820E-05
(PID.TID 0000.0001)  cg2d: iter=    62 ; resid.=  1.12612654845052E-05
(PID.TID 0000.0001)  cg2d: iter=    63 ; resid.=  1.03019797536207E-05
(PID.TID 0000.0001)  cg2d: iter=    64 ; resid.=  9.04701182649294E-06
(PID.TID 0000.0001)  cg2d: iter=    65 ; resid.=  7.23670890279180E-06
(PID.TID 0000.0001)  cg2d: iter=    66 ; resid.=  5.83988123120033E-06
(PID.TID 0000.0001)  cg2d: iter=    67 ; resid.=  5.22516628642769E-06
(PID.TID 0000.0001)  cg2d: iter=    68 ; resid.=  4.54784904088156E-06
(PID.TID 0000.0001)  cg2d: iter=    69 ; resid.=  3.83274855527008E-06
(PID.TID 0000.0001)  cg2d: iter=    70 ; resid.=  3.27208691370537E-06
(PID.TID 0000.0001)  cg2d: iter=    71 ; resid.=  2.70829075335376E-06
(PID.TID 0000.0001)  cg2d: iter=    72 ; resid.=  2.30069556753891E-06
(PID.TID 0000.0001)  cg2d: iter=    73 ; resid.=  1.92888762060596E-06
(PID.TID 0000.0001)  cg2d: iter=    74 ; resid.=  1.44070660756753E-06
(PID.TID 0000.0001)  cg2d: iter=    75 ; resid.=  1.11965957125631E-06
(PID.TID 0000.0001)  cg2d: iter=    76 ; resid.=  9.73077144761787E-07
(PID.TID 0000.0001)  cg2d: iter=    77 ; resid.=  7.96336588057067E-07
(PID.TID 0000.0001)  cg2d: iter=    78 ; resid.=  6.42471258300811E-07
(PID.TID 0000.0001)  cg2d: iter=    79 ; resid.=  5.38133260911813E-07
(PID.TID 0000.0001)  cg2d: iter=    80 ; resid.=  4.43407171207891E-07
(PID.TID 0000.0001)  cg2d: iter=    81 ; resid.=  3.24314538583027E-07
(PID.TID 0000.0001)  cg2d: iter=    82 ; resid.=  2.44231862310438E-07
(PID.TID 0000.0001)  cg2d: iter=    83 ; resid.=  1.87490997518488E-07
(PID.TID 0000.0001)  cg2d: iter=    84 ; resid.=  1.48842960872619E-07
(PID.TID 0000.0001)  cg2d: iter=    85 ; resid.=  1.23846507604132E-07
(PID.TID 0000.0001)  cg2d: iter=    86 ; resid.=  1.05281258082106E-07
(PID.TID 0000.0001)  cg2d: iter=    87 ; resid.=  9.32360743010016E-08
(PID.TID 0000.0001)  cg2d: iter=    88 ; resid.=  8.15317875591492E-08
(PID.TID 0000.0001)  cg2d: iter=    89 ; resid.=  6.36055163850144E-08
(PID.TID 0000.0001)  cg2d: iter=    90 ; resid.=  4.78907395384058E-08
(PID.TID 0000.0001)  cg2d: iter=    91 ; resid.=  3.58982160622284E-08
(PID.TID 0000.0001)  cg2d: iter=    92 ; resid.=  2.60979502525234E-08
(PID.TID 0000.0001)  cg2d: iter=    93 ; resid.=  1.92580836026084E-08
(PID.TID 0000.0001)  cg2d: iter=    94 ; resid.=  1.48195245317246E-08
(PID.TID 0000.0001)  cg2d: iter=    95 ; resid.=  1.19460653387269E-08
(PID.TID 0000.0001)  cg2d: iter=    96 ; resid.=  8.15333138605689E-09
(PID.TID 0000.0001)  cg2d: iter=    97 ; resid.=  6.59080540409457E-09
(PID.TID 0000.0001)  cg2d: iter=    98 ; resid.=  5.61683222679055E-09
(PID.TID 0000.0001)  cg2d: iter=    99 ; resid.=  4.72602794180380E-09
(PID.TID 0000.0001)  cg2d: iter=   100 ; resid.=  3.90347117576818E-09
(PID.TID 0000.0001)  cg2d: iter=   101 ; resid.=  2.97584924373826E-09
(PID.TID 0000.0001)  cg2d: iter=   102 ; resid.=  2.52168745941841E-09
(PID.TID 0000.0001)  cg2d: iter=   103 ; resid.=  2.13203577426696E-09
(PID.TID 0000.0001)  cg2d: iter=   104 ; resid.=  1.81146238521265E-09
(PID.TID 0000.0001)  cg2d: iter=   105 ; resid.=  1.49586220473871E-09
(PID.TID 0000.0001)  cg2d: iter=   106 ; resid.=  1.22318875742993E-09
(PID.TID 0000.0001)  cg2d: iter=   107 ; resid.=  9.46816795494018E-10
(PID.TID 0000.0001)  cg2d: iter=   108 ; resid.=  7.06657740116908E-10
(PID.TID 0000.0001)  cg2d: iter=   109 ; resid.=  5.92216748001990E-10
(PID.TID 0000.0001)  cg2d: iter=   110 ; resid.=  4.94429333889740E-10
(PID.TID 0000.0001)  cg2d: iter=   111 ; resid.=  3.71718806669077E-10
(PID.TID 0000.0001)  cg2d: iter=   112 ; resid.=  2.83515595017055E-10
(PID.TID 0000.0001)  cg2d: iter=   113 ; resid.=  2.24349122535580E-10
(PID.TID 0000.0001)  cg2d: iter=   114 ; resid.=  1.78836608076081E-10
(PID.TID 0000.0001)  cg2d: iter=   115 ; resid.=  1.43140537426727E-10
(PID.TID 0000.0001)  cg2d: iter=   116 ; resid.=  1.02723089443775E-10
(PID.TID 0000.0001)  cg2d: iter=   117 ; resid.=  7.74211001337778E-11
(PID.TID 0000.0001)  cg2d: iter=   118 ; resid.=  5.53144868067880E-11
(PID.TID 0000.0001)  cg2d: iter=   119 ; resid.=  4.02317425398272E-11
(PID.TID 0000.0001)  cg2d: iter=   120 ; resid.=  3.16168776871779E-11
(PID.TID 0000.0001)  cg2d: iter=   121 ; resid.=  2.32264877378100E-11
(PID.TID 0000.0001)  cg2d: iter=   122 ; resid.=  1.72733942103921E-11
(PID.TID 0000.0001)  cg2d: iter=   123 ; resid.=  1.23358731697342E-11
(PID.TID 0000.0001)  cg2d: iter=   124 ; resid.=  8.50402913848428E-12
(PID.TID 0000.0001)  cg2d: iter=   125 ; resid.=  6.10161100286861E-12
(PID.TID 0000.0001)  cg2d: iter=   126 ; resid.=  4.20978981395491E-12
(PID.TID 0000.0001)  cg2d: iter=   127 ; resid.=  3.04737578015927E-12
(PID.TID 0000.0001)  cg2d: iter=   128 ; resid.=  2.38926822306380E-12
(PID.TID 0000.0001)  cg2d: iter=   129 ; resid.=  1.79019102865499E-12
(PID.TID 0000.0001)  cg2d: iter=   130 ; resid.=  1.43652005177396E-12
(PID.TID 0000.0001)  cg2d: iter=   131 ; resid.=  1.12906856098185E-12
(PID.TID 0000.0001)  cg2d: iter=   132 ; resid.=  8.47183836177046E-13
(PID.TID 0000.0001)  cg2d: iter=   133 ; resid.=  6.33240697362244E-13
(PID.TID 0000.0001)  cg2d: iter=   134 ; resid.=  5.08052100044209E-13
(PID.TID 0000.0001)  cg2d: iter=   135 ; resid.=  4.05876056694016E-13
(PID.TID 0000.0001)  cg2d: iter=   136 ; resid.=  2.85284846346545E-13
(PID.TID 0000.0001)  cg2d: iter=   137 ; resid.=  2.21312420107718E-13
(PID.TID 0000.0001)  cg2d: iter=   138 ; resid.=  1.62543851095864E-13
(PID.TID 0000.0001)  cg2d: iter=   139 ; resid.=  1.27118834928178E-13
(PID.TID 0000.0001)  cg2d: iter=   140 ; resid.=  9.38882364604176E-14
DEBUG_STATS_RL:    cg2d_x (SOLVE_FOR_PRESSURE)  min= -1.86164550136735E+01
DEBUG_STATS_RL:    cg2d_x (SOLVE_FOR_PRESSURE)  max=  2.21257832530522E+01
DEBUG_STATS_RL:    cg2d_x (SOLVE_FOR_PRESSURE) mean= -1.56800656325671E+00
DEBUG_STATS_RL:    cg2d_x (SOLVE_FOR_PRESSURE) S.D.=  6.48484379387348E+00
(PID.TID 0000.0001)      cg2d_init_res =   1.01693210334776E+00
(PID.TID 0000.0001)      cg2d_iters(min,last) =      -1     140
(PID.TID 0000.0001)      cg2d_last_res =   9.38882364604176E-14
(PID.TID 0000.0001) // =======================================================
(PID.TID 0000.0001) // Begin MONITOR dynamic field statistics
(PID.TID 0000.0001) // =======================================================
(PID.TID 0000.0001) %MON time_tsnumber                =                    10
(PID.TID 0000.0001) %MON time_secondsf                =   8.6400000000000E+05
(PID.TID 0000.0001) %MON dynstat_eta_max              =   2.2554315242663E+00
(PID.TID 0000.0001) %MON dynstat_eta_min              =  -1.8977018362562E+00
(PID.TID 0000.0001) %MON dynstat_eta_mean             =  -6.8481775787098E-04
(PID.TID 0000.0001) %MON dynstat_eta_sd               =   5.9069010176706E-01
(PID.TID 0000.0001) %MON dynstat_eta_del2             =   1.9587783469641E-03
(PID.TID 0000.0001) %MON dynstat_uvel_max             =   1.6894363884257E-01
(PID.TID 0000.0001) %MON dynstat_uvel_min             =  -8.2324699951600E-02
(PID.TID 0000.0001) %MON dynstat_uvel_mean            =   1.7177342660292E-03
(PID.TID 0000.0001) %MON dynstat_uvel_sd              =   1.2873403648177E-02
(PID.TID 0000.0001) %MON dynstat_uvel_del2            =   8.9776883371734E-05
(PID.TID 0000.0001) %MON dynstat_vvel_max             =   9.8487052268403E-02
(PID.TID 0000.0001) %MON dynstat_vvel_min             =  -1.1254382580049E-01
(PID.TID 0000.0001) %MON dynstat_vvel_mean            =  -9.7004293206869E-05
(PID.TID 0000.0001) %MON dynstat_vvel_sd              =   1.0512068994407E-02
(PID.TID 0000.0001) %MON dynstat_vvel_del2            =   1.0501813047810E-04
(PID.TID 0000.0001) %MON dynstat_wvel_max             =   2.1945862126359E-04
(PID.TID 0000.0001) %MON dynstat_wvel_min             =  -2.1090519176763E-04
(PID.TID 0000.0001) %MON dynstat_wvel_mean            =   1.0751682601535E-22
(PID.TID 0000.0001) %MON dynstat_wvel_sd              =   2.3330893776724E-05
(PID.TID 0000.0001) %MON dynstat_wvel_del2            =   2.7040770174175E-07
(PID.TID 0000.0001) %MON dynstat_theta_max            =   2.9853133844091E+01
(PID.TID 0000.0001) %MON dynstat_theta_min            =  -1.9209522280029E+00
(PID.TID 0000.0001) %MON dynstat_theta_mean           =   3.6294695460477E+00
(PID.TID 0000.0001) %MON dynstat_theta_sd             =   4.4151130860957E+00
(PID.TID 0000.0001) %MON dynstat_theta_del2           =   5.0742454584818E-03
(PID.TID 0000.0001) %MON dynstat_salt_max             =   3.7446496655802E+01
(PID.TID 0000.0001) %MON dynstat_salt_min             =   2.9775139423516E+01
(PID.TID 0000.0001) %MON dynstat_salt_mean            =   3.4727978273745E+01
(PID.TID 0000.0001) %MON dynstat_salt_sd              =   2.9615191017313E-01
(PID.TID 0000.0001) %MON dynstat_salt_del2            =   1.0099595133702E-03
(PID.TID 0000.0001) %MON dynstat_sst_max              =   2.9853133844091E+01
(PID.TID 0000.0001) %MON dynstat_sst_min              =  -1.9209522280029E+00
(PID.TID 0000.0001) %MON dynstat_sst_mean             =   1.8612397774019E+01
(PID.TID 0000.0001) %MON dynstat_sst_sd               =   9.0839638841265E+00
(PID.TID 0000.0001) %MON dynstat_sst_del2             =   2.6173909383999E-02
(PID.TID 0000.0001) %MON dynstat_sss_max              =   3.7440817131752E+01
(PID.TID 0000.0001) %MON dynstat_sss_min              =   2.9775139423516E+01
(PID.TID 0000.0001) %MON dynstat_sss_mean             =   3.4863969651613E+01
(PID.TID 0000.0001) %MON dynstat_sss_sd               =   9.6733077218420E-01
(PID.TID 0000.0001) %MON dynstat_sss_del2             =   7.9966554834562E-03
(PID.TID 0000.0001) %MON forcing_qnet_max             =   4.3532449340820E+02
(PID.TID 0000.0001) %MON forcing_qnet_min             =  -1.8282252197266E+02
(PID.TID 0000.0001) %MON forcing_qnet_mean            =  -1.6587597735982E+01
(PID.TID 0000.0001) %MON forcing_qnet_sd              =   1.1099484968291E+02
(PID.TID 0000.0001) %MON forcing_qnet_del2            =   1.0064568232602E+00
(PID.TID 0000.0001) %MON forcing_qsw_max              =   0.0000000000000E+00
(PID.TID 0000.0001) %MON forcing_qsw_min              =   0.0000000000000E+00
(PID.TID 0000.0001) %MON forcing_qsw_mean             =   0.0000000000000E+00
(PID.TID 0000.0001) %MON forcing_qsw_sd               =   0.0000000000000E+00
(PID.TID 0000.0001) %MON forcing_qsw_del2             =   0.0000000000000E+00
(PID.TID 0000.0001) %MON forcing_empmr_max            =   8.1892606829115E-05
(PID.TID 0000.0001) %MON forcing_empmr_min            =  -7.3098166808450E-05
(PID.TID 0000.0001) %MON forcing_empmr_mean           =   8.6431851563760E-07
(PID.TID 0000.0001) %MON forcing_empmr_sd             =   2.8285734796509E-05
(PID.TID 0000.0001) %MON forcing_empmr_del2           =   3.6322996729435E-07
(PID.TID 0000.0001) %MON forcing_fu_max               =   2.7001778483391E-01
(PID.TID 0000.0001) %MON forcing_fu_min               =  -1.6600005030632E-01
(PID.TID 0000.0001) %MON forcing_fu_mean              =   1.6047892078789E-02
(PID.TID 0000.0001) %MON forcing_fu_sd                =   9.0407764820516E-02
(PID.TID 0000.0001) %MON forcing_fu_del2              =   6.8344110701255E-04
(PID.TID 0000.0001) %MON forcing_fv_max               =   2.2184188961983E-01
(PID.TID 0000.0001) %MON forcing_fv_min               =  -1.8164484500885E-01
(PID.TID 0000.0001) %MON forcing_fv_mean              =  -5.7014729006699E-03
(PID.TID 0000.0001) %MON forcing_fv_sd                =   4.6628624802842E-02
(PID.TID 0000.0001) %MON forcing_fv_del2              =   4.6475770842672E-04
(PID.TID 0000.0001) %MON trAdv_CFL_u_max              =   4.9229843159823E-02
(PID.TID 0000.0001) %MON trAdv_CFL_v_max              =   2.1385815894444E-02
(PID.TID 0000.0001) %MON trAdv_CFL_w_max              =   7.8055104167814E-02
(PID.TID 0000.0001) %MON advcfl_uvel_max              =   5.0322716299949E-02
(PID.TID 0000.0001) %MON advcfl_vvel_max              =   2.1865460367075E-02
(PID.TID 0000.0001) %MON advcfl_wvel_max              =   7.7427786106983E-02
(PID.TID 0000.0001) %MON advcfl_W_hf_max              =   8.7615652700007E-02
(PID.TID 0000.0001) %MON pe_b_mean                    =   4.4647913769719E-04
(PID.TID 0000.0001) %MON ke_max                       =   1.4303916575349E-02
(PID.TID 0000.0001) %MON ke_mean                      =   1.2624579773794E-04
(PID.TID 0000.0001) %MON ke_vol                       =   1.3226782436723E+18
(PID.TID 0000.0001) %MON vort_r_min                   =  -4.8039472927920E-07
(PID.TID 0000.0001) %MON vort_r_max                   =   3.6549743301873E-07
(PID.TID 0000.0001) %MON vort_a_mean                  =  -2.5274806437895E-05
(PID.TID 0000.0001) %MON vort_a_sd                    =   7.3604798223955E-05
(PID.TID 0000.0001) %MON vort_p_mean                  =  -3.1845654590454E-05
(PID.TID 0000.0001) %MON vort_p_sd                    =   1.3162332401565E-04
(PID.TID 0000.0001) %MON surfExpan_theta_mean         =   4.9852550011659E-06
(PID.TID 0000.0001) %MON surfExpan_salt_mean          =   1.9213046004651E-07
(PID.TID 0000.0001) // =======================================================
(PID.TID 0000.0001) // End MONITOR dynamic field statistics
(PID.TID 0000.0001) // =======================================================
(PID.TID 0000.0001) // =======================================================
(PID.TID 0000.0001) // Field Current uVel   at iteration         10
(PID.TID 0000.0001) // CMIN =         -8.232469995159966E-02
(PID.TID 0000.0001) // CMAX =          1.689436388425667E-01
(PID.TID 0000.0001) // CINT =          9.306234770154308E-03
(PID.TID 0000.0001) // SYMBOLS (CMIN->CMAX): -abcdefghijklmnopqrstuvwxyz+
(PID.TID 0000.0001) //                  0.0: .
(PID.TID 0000.0001) // RANGE I (Lo:Hi:Step):(     1:    90:     1)
(PID.TID 0000.0001) // RANGE J (Lo:Hi:Step):(    40:     1:    -1)
(PID.TID 0000.0001) // RANGE K (Lo:Hi:Step):(   1:   1:   1)
(PID.TID 0000.0001) // =======================================================
(PID.TID 0000.0001) K =   1
(PID.TID 0000.0001)                I=10      I=20      I=30      I=40      I=50      I=60      I=70      I=80      I=90
(PID.TID 0000.0001) |--J--|123456789|123456789|123456789|123456789|123456789|123456789|123456789|123456789|123456789|
(PID.TID 0000.0001)     40 iihgg..hggggfeeeffh...................................................................hhhh
(PID.TID 0000.0001)     39 hiihcdbcdefggh....i......................................................iii.........hgffg
(PID.TID 0000.0001)     38 hijjhhffghhhh............................................................iiih.......feefgh
(PID.TID 0000.0001)     37 jjj...................................................................i....gh....ggde..hij
(PID.TID 0000.0001)     36 kk..........................................feg.....................ijlmnnnheg..hghiiiiggj
(PID.TID 0000.0001)     35 ii..................................hgg...hfdddh....hhhi............ij.....jijjjjlmmnoonhh
(PID.TID 0000.0001)     34 ....................................igg..ggggfgg..jjjjjji...................kooopqqrrrqm..
(PID.TID 0000.0001)     33 .....................................hjihghiiiikkklmnnonmki..................oqqtwvutsrnk.
(PID.TID 0000.0001)     32 .....................................iklkjklmlloooopqqqqpom.................nqsqrvvsrppnk.
(PID.TID 0000.0001)     31 .....................................kmoooononopqqqrrrqqppn...............nnrtutssrponml..
(PID.TID 0000.0001)     30 ....................................qrstssstrqqrsssrrqponon.............ppppstttsqpnmmlk..
(PID.TID 0000.0001)     29 ..................................kmpsuvuttuutrrqqrqpoonllml............oponoonmmmmljjji..
(PID.TID 0000.0001)     28 ................................jkmlmnorqpopqooommnonllkkijkk..........kkkkjjkjihiiihhhi..
(PID.TID 0000.0001)     27 ...............i...............gfghhhhjklklkllllljjkkjjihhhhij....ijk..jjjjjijjhffgggg....
(PID.TID 0000.0001)     26 ...............ii............habeeeeeghhhhiiiiiiihhiihhggfggghih..ijefghjiiihhiggffffe....
(PID.TID 0000.0001)     25 ...............hhd....ij....hdabcbbdefedegeffggfffefgeeefdfgeghhh....ffgjhhgfggffcffdd....
(PID.TID 0000.0001)     24 .............hedgde..egi....ee..ebcdedcbceddefggeeeefddeeddddffghhgh..heghgfeffeeefffh....
(PID.TID 0000.0001)     23 .............eeddef..ggg....ce...gfggefedefffgghhhghhhghgfeffgfghgeef.....gigghdefghik....
(PID.TID 0000.0001)     22 j............gfdddfghihg....g..kjjhihgihgghhgiggijihjjiihghhhjiiihffgj.......hhefhihhjhihj
(PID.TID 0000.0001)     21 iei.........fghghgghijiih......ikkiiijjiihhiikifikhhkjhjjihfhjjiiihhhj.........ggiihhhijik
(PID.TID 0000.0001)     20 hfi........hhhjjihhiijjhg.........jijlkkijiijijhjliikihikjhgikjhhhgiij..........gihhhhiihk
(PID.TID 0000.0001)     19 gfg........kjjkmiggiiijhgfi....ki......lkjkjkikijkiikkijkjhhiiihhhfghj............hhggiikk
(PID.TID 0000.0001)     18 gfg........lkihmggefggihggihhjlji....ikkjjklljkjkkiijkjkjhghihighhfehji...........hhhhjhhi
(PID.TID 0000.0001)     17 ggh..........ffhfgeceehhggghjij......hjhijjjjjjiijiihijjigghhhhghfediki..........iihhhjgeg
(PID.TID 0000.0001)     16 ggg.......j..gggfhaeifghgfgiji........hhhijiiijiijiihjkihgghhhghhggghjhi.........higghigfg
(PID.TID 0000.0001)     15 gfgg.....jj..jkijl-fojfgghjhh..........hiiiigjjjiihijklhhgijgghkjgggghhhg.......ihjhghjhgg
(PID.TID 0000.0001)     14 ggge.....ghghllllkelrkffgijgh..........iiiijikkkiiklkklkijljfjmkjgghghfjh......jjikkiijgii
(PID.TID 0000.0001)     13 ijhe.....gjllkjjjjimlifgkljfd..........kkkmlkllkjklmjjlllmmkipoijjjkjjhki.....jkjillikkjmk
(PID.TID 0000.0001)     12 nmkihedimmppliijjkjkjjklnmjhhijiig.....mmlmkklkjkllkjjllmlmnnpmjlnmlljjj......nmkknmlomnon
(PID.TID 0000.0001)     11 qppmkjpststssnopopppqoppponnmlllkkj...mnnml..kkklmjjjkkklllnonlknponmlkj.....lqoooqpoqppqq
(PID.TID 0000.0001)     10 ttsrsswwvwvwwtvyz+zxvuutttsrqppomlkj..mmnnl..kkkkjjjklkklmmnpommprrpnmlk...jkorrrqrtsttttt
(PID.TID 0000.0001)      9 vvvvxxxwvustuvxz+yxwvvvvwvuuusqqqnorolmoon..kklkkmmmmnmmooqrqpopqrrpnnmm..klnprstuuvuuwxuv
(PID.TID 0000.0001)      8 tvwxxxwutsrrttturqrstvvwvvuvustuutvywtttrpmmmnnoqsssttstuuuusrqprrqpppom..kknprsttuuttvuts
(PID.TID 0000.0001)      7 qrssqqqpppqpqppponnoqpqrrrrqqqrstuwywvvvtrqppppruwvxyxwwwustrqqqqrqrrrrrrnlnqrrpooqpopqqpp
(PID.TID 0000.0001)      6 mmlkkkklmmmmmmmmmmnlkjlnnnmmnopqrqqrpoqrrqrssrrtuttuutrrqoopppppprrsssttttuutspommllmmnonm
(PID.TID 0000.0001)      5 iihhhiijkkkkkjijkkkjiijjjiijllmmmlmllmnnnoprrqrsrqppnlkkklmoponopqqqrstttsqommllkkkjjklkji
(PID.TID 0000.0001)      4 ggffgghhihhhhgghhiihhhggddfghhhihiiiiiiiijklmlmmlkjjihghijlmmmmmmnnnnooomj...ijiiihhhhhhgg
(PID.TID 0000.0001)      3 gffffggggh.............................gghhhhhhhhggfffffhijjjjjjjjjjjjjii...iihhhggggggggg
(PID.TID 0000.0001)      2 ...........................................hhhihhhgggfgghiiiihhh...hhh......iiihhhhhhih...
(PID.TID 0000.0001)      1 ..........................................................................................
(PID.TID 0000.0001) // =======================================================
(PID.TID 0000.0001) // END OF FIELD                                          =
(PID.TID 0000.0001) // =======================================================
(PID.TID 0000.0001) 
(PID.TID 0000.0001) // =======================================================
(PID.TID 0000.0001) // Field Current vVel   at iteration         10
(PID.TID 0000.0001) // CMIN =         -9.638858938504295E-02
(PID.TID 0000.0001) // CMAX =          9.464170150983671E-02
(PID.TID 0000.0001) // CINT =          7.075195959069617E-03
(PID.TID 0000.0001) // SYMBOLS (CMIN->CMAX): -abcdefghijklmnopqrstuvwxyz+
(PID.TID 0000.0001) //                  0.0: .
(PID.TID 0000.0001) // RANGE I (Lo:Hi:Step):(     1:    90:     1)
(PID.TID 0000.0001) // RANGE J (Lo:Hi:Step):(    40:     1:    -1)
(PID.TID 0000.0001) // RANGE K (Lo:Hi:Step):(   1:   1:   1)
(PID.TID 0000.0001) // =======================================================
(PID.TID 0000.0001) K =   1
(PID.TID 0000.0001)                I=10      I=20      I=30      I=40      I=50      I=60      I=70      I=80      I=90
(PID.TID 0000.0001) |--J--|123456789|123456789|123456789|123456789|123456789|123456789|123456789|123456789|123456789|
(PID.TID 0000.0001)     40 lnpss.jijjkkkk...rr..................................................................ljjjj
(PID.TID 0000.0001)     39 noprqponmmmnn...........................................................mlkl........kjkklm
(PID.TID 0000.0001)     38 mnn.......................................................................jil......hg.onnm
(PID.TID 0000.0001)     37 mm...................................................................mk...igk...lmoop.jkml
(PID.TID 0000.0001)     36 lm.........................................oqrp....................mmo....gfgi.jkmnonlkkkk
(PID.TID 0000.0001)     35 ...................................kkmm..poopqom...lnqst...................jhhjkkmonlkko..
(PID.TID 0000.0001)     34 ....................................kjk.mmllmoon.lkmorttr...................igjlmnpqpmmm..
(PID.TID 0000.0001)     33 ....................................khgijklkmqpnoonoprssrpo.................mkloonppmjijm.
(PID.TID 0000.0001)     32 ....................................jggijjllnpnmoonprsssqoo................qonqpmklkihhk..
(PID.TID 0000.0001)     31 ....................................oomllmnlkmlmopoprrsspmn..............puwuvuronnmmlln..
(PID.TID 0000.0001)     30 ...................................vusqppqpnnnnnppopqssromm............ttvvrnlklmnmmmmmo..
(PID.TID 0000.0001)     29 .................................trrponoopnmnonmnnoprrrpomlm...........nnmkjjklmnnmnmmoo..
(PID.TID 0000.0001)     28 ...............................lmlmmkkjjlnmmmnnmmoprsrqponlll.........nmlmllllklllllll....
(PID.TID 0000.0001)     27 ..............nm..............lnlklmmklnqqpnnnnnpppqqpponnlllm...mmns.pppppqqqqpoopoom....
(PID.TID 0000.0001)     26 ..............nlm...........jknljklllknqpnoonmllmllllnonmnmlnnoo....rpponnmnnmmmnpmlml....
(PID.TID 0000.0001)     25 ..............jmno...mmm...klr.fdefgfhiiiiihhggghhhhhhhghhimnnpqo....kiikijjiijlnkjkif....
(PID.TID 0000.0001)     24 ............opoosss.nllm...jnq..--abcdddfgfefgjlllkihgffgijkjjjihhkm.....fjihijmmlkkij....
(PID.TID 0000.0001)     23 ............ljlmnom.nkjj...mo...iikkmmmmmmmnooqttsstssstuvtsrpnmmnnoo.......lnpqonmorv....
(PID.TID 0000.0001)     22 o...........lnnmjggffhjk......nrqqqrrpponnopoonqppqrrsusqooqqpppqqpnmm........nmnmopqsroon
(PID.TID 0000.0001)     21 mkk........llmmjkkkjkmnpp......o.mlnnmmmmlmmmoomnnnmmnoponnnmlkllmonlk.........jlmonmmmmml
(PID.TID 0000.0001)     20 lln.......mkjjjhhjmmmooon......p......pnmmlllmnmopqqrrpqrrqpopqqpoorsr...........ooopppplk
(PID.TID 0000.0001)     19 mmm.......ssrqsqqoortusqomm...nom.....lmmmmkkjjjjklnoponoqqpqrqqonmopo...........oonmmllop
(PID.TID 0000.0001)     18 pml.......s.xxx+yuqrrttsqpqomns.....nnnqqonnommmnmklopppppqrrsssrqqqrpn..........oooponnqr
(PID.TID 0000.0001)     17 rqp.......p.wvtvururlknnmmnnnm.......nonoppqqqonnnmmmmmnoopppprrrqolopo.........klnpqrsrqr
(PID.TID 0000.0001)     16 rsr......ro.qpnnojmsmgknomikm.........nmkkllmmmklllllmllnonmopppnnnnpsrp........klmnprsrqr
(PID.TID 0000.0001)     15 rstr....ptt.iihfggcijfeilnmmj.........mnmjihhiihgihghkljklmmppmnnnppptxuq......ljklkknpsrq
(PID.TID 0000.0001)     14 rstt....nqrlgiihjhdgmlkmnoppq.........klmligfghhfeedcfhgefhjmomnonoonnqrn.....mlklmkkmoqrq
(PID.TID 0000.0001)     13 npqr....klnlklnnnmllmnkkmnppp.........kkkkkihiiijiijhggfefgdeikkmlkmnopr.....omlklmkjjjkno
(PID.TID 0000.0001)     12 mnnmlmiecflpmnqppppqnmnnopomlmnnpp....kllnm.lmlllkkkkkllkijkijjlonllmopr.....kkjijkjjkjkll
(PID.TID 0000.0001)     11 lmljedgfd-cebcillkjlnmlmnnnmllmllno..jmnnoo.kkmnpponmmnpqnmnnljlpqnllmoo....fkmifgjjikjjll
(PID.TID 0000.0001)     10 mmmmkijjkihkhbcghihhknonmlmmlkmonott.lnonn..kkmoqrqqpomosutqpolmpqqonnnn..nlikoonkjjillhik
(PID.TID 0000.0001)      9 jllllkjkmlknpomlnooljlopomlkihhiiglpomnpoo.omklmnopqqpmmmosspomorrqqpomp.nqrpnopnmlkjmpmhh
(PID.TID 0000.0001)      8 mmmlmmkjlnlkmoqqppqpljlnoonmjhgghhjhddgiknqqommonkjjiijlkinpmlkkopoooomn.nptwvssrqnlknrrom
(PID.TID 0000.0001)      7 ooonnomlkmoonmmoprrrpnnnmmmmmlkjikpohfffeglpomnqrpnmjfeijimpnkjjlmmlmnnptsoprssqqqpmlmpqpo
(PID.TID 0000.0001)      6 oomlllmmlkklmlklmoqpnmmmkiijkkklkjmqolkheegkmnoqqpqrplhhggjnmkiiklkjjlmnpqpnopponnnmlmnonn
(PID.TID 0000.0001)      5 mmkkkjjklkkklkkklmllllkkkjjjkkkkkkklmmmljiiijloqpooonmkjiikmmkjjlmlllmnnmn..qponnmmmmmmmmm
(PID.TID 0000.0001)      4 kjjkkjjjjk............................onnnnlllnpponmlkjklmmmmlkkklllmnnml...onnmmmmmmmlkkk
(PID.TID 0000.0001)      3 ..........................................nmllllllllkjkmooonmllm..mllm.....nnmlkklmmmll...
(PID.TID 0000.0001)      2 ..........................................................................................
(PID.TID 0000.0001)      1 ..........................................................................................
(PID.TID 0000.0001) // =======================================================
(PID.TID 0000.0001) // END OF FIELD                                          =
(PID.TID 0000.0001) // =======================================================
(PID.TID 0000.0001) 
(PID.TID 0000.0001) // =======================================================
(PID.TID 0000.0001) // Field Current theta  at iteration         10
(PID.TID 0000.0001) // CMIN =         -1.920952228002867E+00
(PID.TID 0000.0001) // CMAX =          2.985313384409053E+01
(PID.TID 0000.0001) // CINT =          1.176818002670126E+00
(PID.TID 0000.0001) // SYMBOLS (CMIN->CMAX): -abcdefghijklmnopqrstuvwxyz+
(PID.TID 0000.0001) //                  0.0: .
(PID.TID 0000.0001) // RANGE I (Lo:Hi:Step):(     1:    90:     1)
(PID.TID 0000.0001) // RANGE J (Lo:Hi:Step):(    40:     1:    -1)
(PID.TID 0000.0001) // RANGE K (Lo:Hi:Step):(   1:   1:   1)
(PID.TID 0000.0001) // =======================================================
(PID.TID 0000.0001) K =   1
(PID.TID 0000.0001)                I=10      I=20      I=30      I=40      I=50      I=60      I=70      I=80      I=90
(PID.TID 0000.0001) |--J--|123456789|123456789|123456789|123456789|123456789|123456789|123456789|123456789|123456789|
(PID.TID 0000.0001)     40 abbcdbbaa----abcdddbbbbbbbbbbbbbbbbbbbbbbbbbbbbbbbbbbbbbbbbbbbbbbbbbbbbbbbbbbbbbbbbbbbbbba
(PID.TID 0000.0001)     39 bccddccbbaaaa-bbbedbbbbbbbbbbbbbbbbbbbbbbbbbbbbbbbbbbbbbbbbbbbbbbbbbbbbb----bbbbbbbbbbbaab
(PID.TID 0000.0001)     38 effffeddddcccbbbbbbbbbbbbbbbbbbbbbbbbbbbbbbbbbbbbbbbbbbbbbbbbbbbbbbbbbbb-----bbbbbbcabbbde
(PID.TID 0000.0001)     37 gghbbbbbbbbbbbbbbbbbbbbbbbbbbbbbbbbbbbbbbbbbbbbbbbbbbbbbbbbbbbbbbbbbbbcbbbbabbbbedddfbdeef
(PID.TID 0000.0001)     36 hhbbbbbbbbbbbbbbbbbbbbbbbbbbbbbbbbbbbbbbbbbdcbabbbbbbbbbbbbbbbbbbbbdcccbabbccdbeefgghhhhhh
(PID.TID 0000.0001)     35 ggbbbbbbbbbbbbbbbbbbbbbbbbbbbbbbbbbaaaabbccdddccbbbffffgbbbbbbbbbbbbbbbbbbccdeeeffghijjiih
(PID.TID 0000.0001)     34 bbbbbbbbbbbbbbbbbbbbbbbbbbbbbbbbbbba-abbcddddddebeefffghhbbbbbbbbbbbbbbbbbbcbcefgghjjkjjbb
(PID.TID 0000.0001)     33 bbbbbbbbbbbbbbbbbbbbbbbbbbbbbbbbbbbb-bbccddeeeeefffffgghhhibbbbbbbbbbbbbbbbbbceijjkkllkkkb
(PID.TID 0000.0001)     32 bbbbbbbbbbbbbbbbbbbbbbbbbbbbbbbbbbbbbcdddeffffgghhhhhiiiiijbbbbbbbbbbbbbbbbcccgkmmmmmlllkb
(PID.TID 0000.0001)     31 bbbbbbbbbbbbbbbbbbbbbbbbbbbbbbbbbbbbfghhhhiiiijjjjjkkkkllkkbbbbbbbbbbbbbbhjjjjmoooonnmmmbb
(PID.TID 0000.0001)     30 bbbbbbbbbbbbbbbbbbbbbbbbbbbbbbbbbbbmlmmmmmmmmmmmmmmmnnnnnmlbbbbbbbbbbbbmopqqqqqqqqppoooobb
(PID.TID 0000.0001)     29 bbbbbbbbbbbbbbbbbbbbbbbbbbbbbbbbbppppppppppppoooooooppppponmbbbbbbbbbbbrrrrrrrrrqqqqqpppbb
(PID.TID 0000.0001)     28 bbbbbbbbbbbbbbbbbbbbbbbbbbbbbbbprrrrrrrrrrrrrrrrrrrrrrrrqqpoobbbbbbbbbttsssssssrrrrrrqqpbb
(PID.TID 0000.0001)     27 bbbbbbbbbbbbbbvvbbbbbbbbbbbbbbssttstttttttttttttttttttssrrqqqqbbbsstubuuuuuuuuttttsssrbbbb
(PID.TID 0000.0001)     26 bbbbbbbbbbbbbbvvubbbbbbbbbbbutuuuuvvvvvvvvvvvvvvvvvuuutttssrsstubtuvwwwwvvvvvvvvuttssrbbbb
(PID.TID 0000.0001)     25 bbbbbbbbbbbbbbvvwxbbbxwxbbbuuvwwwwxxxxxxxxwwwwwwwwwvvvvuuuttuuvwxbbbxxxwwwwwwwwvvvutsqbbbb
(PID.TID 0000.0001)     24 bbbbbbbbbbbbwwwwxyybxxxxbbbwwxbyyyyyyyyxxxxxxxxwwwwwwwwwvvvwwwxxxwvwbxxwwwwwwwwwvvvutrbbbb
(PID.TID 0000.0001)     23 bbbbbbbbbbbbxxxxyyzbxxyybbbwxxbbyyyyyyyyyyyxxxxxxxxxxxxwwwwxxxxwwwwwwbbbbwwxxxxwwwwvvubbbb
(PID.TID 0000.0001)     22 wbbbbbbbbbbbxxyyyyyyyyyybbbxxbyyzzyzzzzzzzzzzyyyyyyyyyxwwwxxxxwvvwwwxwbbbbbbyyxxxxxxxxxxxw
(PID.TID 0000.0001)     21 xxxbbbbbbbbxxxxyyzzyzzzz+bbbbbzyzzzzzzz++zzzyyyyyyyyyxxwvvwwwwvvvvvvvubbbbbbbbyyyyyyyyyxxx
(PID.TID 0000.0001)     20 xwwbbbbbbbxyyyyxyyzzzzzz+bbbbbbzbzzzzz+++zzzzzzzyyyyxxxxwwwxwvvvvvvvutbbbbbbbbbyyyyyxxxxwx
(PID.TID 0000.0001)     19 wvvbbbbbbbyzyyxwwxyzzyzzzzzbbbzzzbbbbb++++++z++zzzzzyyyyxxxxxwwvwwwwvubbbbbbbbbbbyyxxxwwww
(PID.TID 0000.0001)     18 uutbbbbbbbzzzyyxxxyzyyzyzzzzzzzzzbbbz+z++++zz+++++++zzzyyyyxxwwwvvwvvutbbbbbbbbbbyyxxwvvwv
(PID.TID 0000.0001)     17 uusbbbbbbbzbzyyyyyxyzyyyyyyyyzzbbbbbyzzzzzzzzzzzzzzzzzyyyyyxxwwvuuvvuuubbbbbbbbbyyyxxwuuvu
(PID.TID 0000.0001)     16 utsbbbbbbyybzyyyyxxxxxxxwxxxxybbbbbbbyyyyyyyyyyyyyyyyyyyyyyyxxwwvvuuuttsbbbbbbbbyyyyxwvuuu
(PID.TID 0000.0001)     15 utsrbbbbxxxbxxxxxwwwwvwwvvwwwbbbbbbbbbxxxxxxxxxxxxxxxxxxxyyyxwwwvvuuttsssbbbbbbwxxxxxxwvuu
(PID.TID 0000.0001)     14 ttsqbbbbxyxxwxwvwwwvutuuuuuuubbbbbbbbbwwvwwwwwwwwwwwwwwwwxxwwwwvvvuutssrrbbbbbvwwwwwwwvvvu
(PID.TID 0000.0001)     13 tttsbbbbwwwvvvutuuvuuuttsstttbbbbbbbbbvvvuuuuuuuuuttuuuuuvvwwwvuuututssrrbbbbvvvvvvvvvvvuu
(PID.TID 0000.0001)     12 sssssstttutsstsssrrrstsrrrsssqqrrqbbbbuuutsssssrrrrrrrrrrstuttsstssssrrpbbbbbuvuuttttttstt
(PID.TID 0000.0001)     11 qpprssssrrrqqrqqqpoopqqoppppppppppqbbttsrrrbrqqqqqqqqqqqqqrrpppqrqrrrqqpbbbbprtsrqqrrqqppq
(PID.TID 0000.0001)     10 mllnopponnnonoooonnmnnmmmmllmnnnnooobqqqqqqbpppppppooooooooonnoooooooooobbnnopponnnnoonnmm
(PID.TID 0000.0001)      9 iihijjiiiiiiijjjiijjjjiiiiiiijkklmnmlnoonobmmmnnnonnnnnnnnmlllmmmmllmmmmbmmmmmmllkjjkkjiii
(PID.TID 0000.0001)      8 ffffffffeefghggffffghhffgggggiijjjkkjklllllkkllllkllllkllkkjijkkkkjjjkkjbkkkjjiihhggggfeee
(PID.TID 0000.0001)      7 ccddddeeeedeffeeeeeeedddefffffggggghhhiijjjijjjjiiihhhhhiiihhhhiiiiiiiiiiiiihhgfeeeddddddc
(PID.TID 0000.0001)      6 bbbcdddddddddddddddddddeddddcdeeeeeeeffgghhhghhihfeedeeefffffefggggghhhhhhggfeedccccccbcbb
(PID.TID 0000.0001)      5 bcccccccccddddddddcccdddcccdddddddddddddeeeeeeeeeccbbccccddddddeeeeffeeeeeeddcccbbbbbbbbbb
(PID.TID 0000.0001)      4 cccccbbbbbbbbbccccccbbbabbabbbbcbbbbbbbcccccbbbbbbbbbbbbbbbbccccccccccccccbbaaaabbbbbbbbbb
(PID.TID 0000.0001)      3 bbbbbaaaaabbbbbbbbbbbbbbbbbbbbbbbbbbbbbbaabbaaaabbbbbbaaaaaaaabaaaaaaaaabbbaaaaaaabbbbbbab
(PID.TID 0000.0001)      2 bbbbbbbbbbbbbbbbbbbbbbbbbbbbbbbbbbbbbbbbbbbbbbbaaaaaaaaaaaa--aaabbaaaabbbbbaaaaaaabbbbabbb
(PID.TID 0000.0001)      1 bbbbbbbbbbbbbbbbbbbbbbbbbbbbbbbbbbbbbbbbbbbbbbbbbbbbbbbbbbbbbbbbbbbbbbbbbbbbbbbbbbbbbbbbbb
(PID.TID 0000.0001) // =======================================================
(PID.TID 0000.0001) // END OF FIELD                                          =
(PID.TID 0000.0001) // =======================================================
(PID.TID 0000.0001) 
(PID.TID 0000.0001) // =======================================================
(PID.TID 0000.0001) // Field Current etaN   at iteration         10
(PID.TID 0000.0001) // CMIN =         -1.897701836256222E+00
(PID.TID 0000.0001) // CMAX =          2.255431524266299E+00
(PID.TID 0000.0001) // CINT =          1.538197540934267E-01
(PID.TID 0000.0001) // SYMBOLS (CMIN->CMAX): -abcdefghijklmnopqrstuvwxyz+
(PID.TID 0000.0001) //                  0.0: .
(PID.TID 0000.0001) // RANGE I (Lo:Hi:Step):(    -1:    92:     1)
(PID.TID 0000.0001) // RANGE J (Lo:Hi:Step):(    42:    -1:    -1)
(PID.TID 0000.0001) // RANGE K (Lo:Hi:Step):(   1:   1:   1)
(PID.TID 0000.0001) // =======================================================
(PID.TID 0000.0001) K =   1
(PID.TID 0000.0001)                I=8       I=18      I=28      I=38      I=48      I=58      I=68      I=78      I=88
(PID.TID 0000.0001) |--J--|101234567|901234567|901234567|901234567|901234567|901234567|901234567|901234567|901234567|9012
(PID.TID 0000.0001)     42 ............................................ffffffffffffffffeeeeee..eeee.....gggffggggfff.....
(PID.TID 0000.0001)     41 ..............................................................................................
(PID.TID 0000.0001)     40 aa-----.dddccccccdddd..................................................................aaaaa--
(PID.TID 0000.0001)     39 aaa--aabbbbbbbbb...ff.....................................................cbbb........bbaaaaa-
(PID.TID 0000.0001)     38 baaaabaaaaaaaaa...........................................................ccccb......cbbbbbaaa
(PID.TID 0000.0001)     37 bbbbb..................................................................jj...dcc...cbbbb.cbbbbb
(PID.TID 0000.0001)     36 bbbb.........................................jjjj....................llkjihfeddc.cbbbbbccbbbbb
(PID.TID 0000.0001)     35 bbbb.................................llkk..jjjjjkj...jjijj...........mmm....edcccbbbbccccbbbbb
(PID.TID 0000.0001)     34 .....................................lllk.kkkkjjjj.kjiiijjj..................eedccccccdddd....
(PID.TID 0000.0001)     33 e.....................................lllkkkkkkkkkjjjjjjjjjkk.................eeeeeeeeeeeee...
(PID.TID 0000.0001)     32 e.....................................mmllkkkkkklkkkkkkkkkkkk................gggffggfffffee...
(PID.TID 0000.0001)     31 ......................................mmmlllllllllllllllllllk..............ihiihhhhggggfff....
(PID.TID 0000.0001)     30 .....................................oooonnnnmmmmmmmmmmmmmmll............jjjjkkkjjiihhhggf....
(PID.TID 0000.0001)     29 ...................................rrrrqqppppoooonnnnmmmmmmmll...........mlllllkkjjjiihhgg....
(PID.TID 0000.0001)     28 .................................ttttsssrrqqqpppoooonnnnnmmmmll.........nmmmlllkkjjjiiihhg....
(PID.TID 0000.0001)     27 ................jj..............vuuttttssrrrqqqpppooooonnnmmmmll...wtqo.nnmmmllkkjjjjiih......
(PID.TID 0000.0001)     26 ................jjj...........xvvuuutttsssrrrqqqpppppooonnnmmmllll.wtoooonnnmmllkkkjjjii......
(PID.TID 0000.0001)     25 ................kjjk...mmm...zxwvvuutttssssrrrqqpppooooonnnmmmmmllm...oooonnmmmllkkkjjji......
(PID.TID 0000.0001)     24 ..............jjkkkkl.mmmm...yyy.utttsssrrrrrqqqppoooonnnmmmmmmmmmmlll.onnnmmmllkkkkkjji......
(PID.TID 0000.0001)     23 ..............kkkkllm.mmmm...zzz..ssrrrrrrqqqqpppoooonnmmmlllllllllllll....lllllkkkkkkjj......
(PID.TID 0000.0001)     22 mml...........kkkkllmmmmmm...++.sssrrrrrqqqqqqqppppooonnnmmmmmmmllllllml......llllllkkkkllmml.
(PID.TID 0000.0001)     21 mmmmn........kkkkllllllllmm.....sssrrrrrrqqqqqqpppppooonnnmmmmmmllllllll........lllllllllmmmmm
(PID.TID 0000.0001)     20 lllmm.......llkkkkkllllllmm......r.rrrrrrqqqqqqqpppppooonnnmmmmlllllllll.........llllllllllllm
(PID.TID 0000.0001)     19 llllm.......llkkkkklllmmmmmnn...qrr.....rqqqqqqqppppppoooonnnmmmllllllll...........mmmmmmlllll
(PID.TID 0000.0001)     18 lllll.......mllllkllmmmmmmmnnnnnnqr...qqqqqqqqpppppppppooonnnnmmmlllllllk..........mmmmmllllll
(PID.TID 0000.0001)     17 lllll.......n.nnnmmmmnnnnnnnnnnno.....qqqqqqqqppppppppppooonnnnmmmlllllkk.........nnnmmmllllll
(PID.TID 0000.0001)     16 mmmll......on.ooonnnonnnnnnnnnnn.......qqqqqqqqpppppppppooooonnnnmmllllkkk........nnnnnnmmmmml
(PID.TID 0000.0001)     15 mmmmmm....poo.oooonnnnnnnnnmmmn.........qqpppppppppppppoooooonnnnmmmmlllkkk......ooonnonnnmmmm
(PID.TID 0000.0001)     14 nnnmmm....ppoooonnnnnnmmmmmmmmm.........qpppppppooooooooooooooonnmmmmmlllkk.....poooonoononnnm
(PID.TID 0000.0001)     13 onnnnm....ppponnnmmmmmmmmnmmmmm.........ppooooooonnnnnnnnnnnnnonnnmmmmmllkk....ppoooonooooonnn
(PID.TID 0000.0001)     12 nnnnnnnnpppponnnnnmmmmmmmmmmmmmmmmll....poonnnnnnnnmmmmmmmmmmmnmmmmmmmlllk.....poooonnnnnonnnn
(PID.TID 0000.0001)     11 nnmmmmnooonnnnnnnnnmmmmmmmmmmllmmmmmm..oonnmm.nnnnmmmmmmmmmmmmllmmmmlllllk....oonnnnnnnnnnnnmm
(PID.TID 0000.0001)     10 lllllllmlllklllmmmlllllllllllllllllmmm.nnnmmm.mnnmmmmmmmmmmmlllllmmlllllll..mmnnmmllmlllllllll
(PID.TID 0000.0001)      9 jkkkkkkjjjjijjjjjjiiijjjjjjjkkkklllmnmmmmmmm.mmmmnnmmmmmmmmmllllllllkkkkll.mmlllllkkkkkkjjjkkk
(PID.TID 0000.0001)      8 hhiiihhhhhhhhihhhghhhhhiiiiiiiijjkkkllllllllllllmmmmmmlllllllkkkkkkkkkkkll.lllkkjjiiiiiiihhhii
(PID.TID 0000.0001)      7 ggggfffffgggggggggggggffgggggghhhiiiihiijjkkkkkkkkkjjjjjjjjjjiijjjjjjjkkkkkjkkjiihhhgghhgggggg
(PID.TID 0000.0001)      6 fffeeffffffffffffffffffffffffgggggggggggghiijjjjjiihhgffgghhhhhhhiiiiiiiiiiihhhggggggggggffffe
(PID.TID 0000.0001)      5 eeeeeeeffffeeeeeefffeeeeeeeeffffffffffffffgghhhhhggfffeeeffgggggggggggggggfffeffffffffffffeeee
(PID.TID 0000.0001)      4 eeeeeeeeeeeeeeeeeeeeeeeeeeefffffffffeeefffffffffffeeeeeeffffffffffffffeeeeee..ffffffffffeeeeee
(PID.TID 0000.0001)      3 ffffffffffee............................ffffffffffffeeeffffeeeeeeeeeeeeedee..ggfffffffffffffff
(PID.TID 0000.0001)      2 ............................................ffffffffffffffffeeeeee..eeee.....gggffggggfff.....
(PID.TID 0000.0001)      1 ..............................................................................................
(PID.TID 0000.0001)      0 aa-----.dddccccccdddd..................................................................aaaaa--
(PID.TID 0000.0001)     -1 aaa--aabbbbbbbbb...ff.....................................................cbbb........bbaaaaa-
(PID.TID 0000.0001) // =======================================================
(PID.TID 0000.0001) // END OF FIELD                                          =
(PID.TID 0000.0001) // =======================================================
(PID.TID 0000.0001) 
(PID.TID 0000.0001)  MDS_WRITE_FIELD: it,rec,kS,kL,kH=      10     1  15   1  15 file=U.0000000010
(PID.TID 0000.0001)  MDS_WRITE_FIELD: it,rec,kS,kL,kH=      10     1  15   1  15 file=V.0000000010
(PID.TID 0000.0001)  MDS_WRITE_FIELD: it,rec,kS,kL,kH=      10     1  15   1  15 file=T.0000000010
(PID.TID 0000.0001)  MDS_WRITE_FIELD: it,rec,kS,kL,kH=      10     1  15   1  15 file=S.0000000010
(PID.TID 0000.0001)  MDS_WRITE_FIELD: it,rec,kS,kL,kH=      10     1   1   1   1 file=Eta.0000000010
(PID.TID 0000.0001)  MDS_WRITE_FIELD: it,rec,kS,kL,kH=      10     1  15   1  15 file=W.0000000010
(PID.TID 0000.0001)  MDS_WRITE_FIELD: it,rec,kS,kL,kH=      10     1  15   1  15 file=PH.0000000010
(PID.TID 0000.0001)  MDS_WRITE_FIELD: it,rec,kS,kL,kH=      10     1   1   1   1 file=PHL.0000000010
(PID.TID 0000.0001)  MDS_WRITE_FIELD: it,rec,kS,kL,kH=      10     1   1   1   1 file=ETAtave.0000000010
(PID.TID 0000.0001)  MDS_WRITE_FIELD: it,rec,kS,kL,kH=      10     1  15   1  15 file=Ttave.0000000010
(PID.TID 0000.0001)  MDS_WRITE_FIELD: it,rec,kS,kL,kH=      10     1  15   1  15 file=Stave.0000000010
(PID.TID 0000.0001)  MDS_WRITE_FIELD: it,rec,kS,kL,kH=      10     1  15   1  15 file=uVeltave.0000000010
(PID.TID 0000.0001)  MDS_WRITE_FIELD: it,rec,kS,kL,kH=      10     1  15   1  15 file=vVeltave.0000000010
(PID.TID 0000.0001)  MDS_WRITE_FIELD: it,rec,kS,kL,kH=      10     1  15   1  15 file=wVeltave.0000000010
(PID.TID 0000.0001)  MDS_WRITE_FIELD: it,rec,kS,kL,kH=      10     1   1   1   1 file=Eta2tave.0000000010
(PID.TID 0000.0001)  MDS_WRITE_FIELD: it,rec,kS,kL,kH=      10     1  15   1  15 file=UTtave.0000000010
(PID.TID 0000.0001)  MDS_WRITE_FIELD: it,rec,kS,kL,kH=      10     1  15   1  15 file=VTtave.0000000010
(PID.TID 0000.0001)  MDS_WRITE_FIELD: it,rec,kS,kL,kH=      10     1  15   1  15 file=WTtave.0000000010
(PID.TID 0000.0001)  MDS_WRITE_FIELD: it,rec,kS,kL,kH=      10     1  15   1  15 file=UStave.0000000010
(PID.TID 0000.0001)  MDS_WRITE_FIELD: it,rec,kS,kL,kH=      10     1  15   1  15 file=VStave.0000000010
(PID.TID 0000.0001)  MDS_WRITE_FIELD: it,rec,kS,kL,kH=      10     1  15   1  15 file=WStave.0000000010
(PID.TID 0000.0001)  MDS_WRITE_FIELD: it,rec,kS,kL,kH=      10     1  15   1  15 file=TTtave.0000000010
(PID.TID 0000.0001)  MDS_WRITE_FIELD: it,rec,kS,kL,kH=      10     1  15   1  15 file=UUtave.0000000010
(PID.TID 0000.0001)  MDS_WRITE_FIELD: it,rec,kS,kL,kH=      10     1  15   1  15 file=VVtave.0000000010
(PID.TID 0000.0001)  MDS_WRITE_FIELD: it,rec,kS,kL,kH=      10     1  15   1  15 file=UVtave.0000000010
(PID.TID 0000.0001)  MDS_WRITE_FIELD: it,rec,kS,kL,kH=      10     1  15   1  15 file=Tdiftave.0000000010
(PID.TID 0000.0001)  MDS_WRITE_FIELD: it,rec,kS,kL,kH=      10     1  15   1  15 file=PhHytave.0000000010
(PID.TID 0000.0001)  MDS_WRITE_FIELD: it,rec,kS,kL,kH=      10     1   1   1   1 file=PHLtave.0000000010
(PID.TID 0000.0001)  MDS_WRITE_FIELD: it,rec,kS,kL,kH=      10     1   1   1   1 file=uFluxtave.0000000010
(PID.TID 0000.0001)  MDS_WRITE_FIELD: it,rec,kS,kL,kH=      10     1   1   1   1 file=vFluxtave.0000000010
(PID.TID 0000.0001)  MDS_WRITE_FIELD: it,rec,kS,kL,kH=      10     1   1   1   1 file=tFluxtave.0000000010
(PID.TID 0000.0001)  MDS_WRITE_FIELD: it,rec,kS,kL,kH=      10     1   1   1   1 file=sFluxtave.0000000010
(PID.TID 0000.0001)  MDS_WRITE_FIELD: it,rec,kS,kL,kH=      10     1   1   1   1 file=PHL2tave.0000000010
(PID.TID 0000.0001)  MDS_WRITE_FIELD: it,rec,kS,kL,kH=      10     1  15   1  15 file=Convtave.0000000010
(PID.TID 0000.0001) // Time-average data written, t-step        10
(PID.TID 0000.0001) 
(PID.TID 0000.0001)  MDS_WRITE_FIELD: it,rec,kS,kL,kH=      10     1  15   1  15 file=GM_Kwx-T.0000000010
(PID.TID 0000.0001)  MDS_WRITE_FIELD: it,rec,kS,kL,kH=      10     1  15   1  15 file=GM_Kwy-T.0000000010
(PID.TID 0000.0001)  MDS_WRITE_FIELD: it,rec,kS,kL,kH=      10     1  15   1  15 file=GM_Kwz-T.0000000010
(PID.TID 0000.0001)  MDS_WRITE_FIELD: it,rec,kS,kL,kH=      10     1  15   1  15 file=pickup_cd.0000000010
(PID.TID 0000.0001)  MDS_WRITE_FIELD: it,rec,kS,kL,kH=      10     2  15   1  15 file=pickup_cd.0000000010
(PID.TID 0000.0001)  MDS_WRITE_FIELD: it,rec,kS,kL,kH=      10     3  15   1  15 file=pickup_cd.0000000010
(PID.TID 0000.0001)  MDS_WRITE_FIELD: it,rec,kS,kL,kH=      10     4  15   1  15 file=pickup_cd.0000000010
(PID.TID 0000.0001)  MDS_WRITE_FIELD: it,rec,kS,kL,kH=      10    61   1   1   1 file=pickup_cd.0000000010
(PID.TID 0000.0001)  MDS_WRITE_FIELD: it,rec,kS,kL,kH=      10    -1  15   1  15 file=pickup.0000000010
(PID.TID 0000.0001)  MDS_WRITE_FIELD: it,rec,kS,kL,kH=      10    -2  15   1  15 file=pickup.0000000010
(PID.TID 0000.0001)  MDS_WRITE_FIELD: it,rec,kS,kL,kH=      10    -3  15   1  15 file=pickup.0000000010
(PID.TID 0000.0001)  MDS_WRITE_FIELD: it,rec,kS,kL,kH=      10    -4  15   1  15 file=pickup.0000000010
(PID.TID 0000.0001)  MDS_WRITE_FIELD: it,rec,kS,kL,kH=      10    -5  15   1  15 file=pickup.0000000010
(PID.TID 0000.0001)  MDS_WRITE_FIELD: it,rec,kS,kL,kH=      10    -6  15   1  15 file=pickup.0000000010
(PID.TID 0000.0001)  MDS_WRITE_FIELD: it,rec,kS,kL,kH=      10    -7  15   1  15 file=pickup.0000000010
(PID.TID 0000.0001)  MDS_WRITE_FIELD: it,rec,kS,kL,kH=      10    -8  15   1  15 file=pickup.0000000010
(PID.TID 0000.0001)  MDS_WRITE_FIELD: it,rec,kS,kL,kH=      10  -121   1   1   1 file=pickup.0000000010
(PID.TID 0000.0001)  MDS_WRITE_FIELD: it,rec,kS,kL,kH=      10  -122   1   1   1 file=pickup.0000000010
(PID.TID 0000.0001)  MDS_WRITE_FIELD: it,rec,kS,kL,kH=      10  -123   1   1   1 file=pickup.0000000010
(PID.TID 0000.0001) %CHECKPOINT        10 0000000010
 EXTERNAL_FIELDS_LOAD,        10 : iP,iLd,i0,i1=   12    1   12    1 ; Wght=  0.1666666667  0.8333333333
 EXTERNAL_FIELDS_LOAD: (fu0,1),fu,fv= -4.5368E-02 -3.5633E-02 -3.7255E-02 -5.9422E-02
 EXTERNAL_FIELDS_LOAD: SST,SSS,Q,E-P=  6.5667E-01  3.4598E+01  2.6555E+02  1.1372E-05
DEBUG_STATS_RL:          Uvel (THERMODYNAMICS)  min= -8.23246999515997E-02
DEBUG_STATS_RL:          Uvel (THERMODYNAMICS)  max=  1.68943638842567E-01
DEBUG_STATS_RL:          Uvel (THERMODYNAMICS) mean=  5.78742043807748E-03
DEBUG_STATS_RL:          Uvel (THERMODYNAMICS) S.D.=  2.08605647636226E-02
DEBUG_STATS_RL:          Vvel (THERMODYNAMICS)  min= -1.12543825800488E-01
DEBUG_STATS_RL:          Vvel (THERMODYNAMICS)  max=  9.84870522684034E-02
DEBUG_STATS_RL:          Vvel (THERMODYNAMICS) mean= -1.42721275376407E-03
DEBUG_STATS_RL:          Vvel (THERMODYNAMICS) S.D.=  1.54630418471560E-02
DEBUG_STATS_RL:          Wvel (THERMODYNAMICS)  min= -2.10905191767633E-04
DEBUG_STATS_RL:          Wvel (THERMODYNAMICS)  max=  2.19458621263592E-04
DEBUG_STATS_RL:          Wvel (THERMODYNAMICS) mean= -7.00155166124615E-07
DEBUG_STATS_RL:          Wvel (THERMODYNAMICS) S.D.=  2.13305550597447E-05
DEBUG_STATS_RL:         Theta (THERMODYNAMICS)  min= -1.91834020193694E+00
DEBUG_STATS_RL:         Theta (THERMODYNAMICS)  max=  2.98523714081165E+01
DEBUG_STATS_RL:         Theta (THERMODYNAMICS) mean=  3.21477066215453E+00
DEBUG_STATS_RL:         Theta (THERMODYNAMICS) S.D.=  5.85183700426914E+00
DEBUG_STATS_RL:          Salt (THERMODYNAMICS)  min=  9.99999999999999E-03
DEBUG_STATS_RL:          Salt (THERMODYNAMICS)  max=  3.74467238794970E+01
DEBUG_STATS_RL:          Salt (THERMODYNAMICS) mean=  1.88551629110806E+01
DEBUG_STATS_RL:          Salt (THERMODYNAMICS) S.D.=  1.73006380973612E+01
DEBUG_STATS_RL:         GtNm1 (THERMODYNAMICS)  min= -3.40024079191307E-06
DEBUG_STATS_RL:         GtNm1 (THERMODYNAMICS)  max=  2.62439491134850E-06
DEBUG_STATS_RL:         GtNm1 (THERMODYNAMICS) mean=  2.02100374489660E-08
DEBUG_STATS_RL:         GtNm1 (THERMODYNAMICS) S.D.=  2.70175970713049E-07
DEBUG_STATS_RL:         GsNm1 (THERMODYNAMICS)  min= -4.87902349688324E-07
DEBUG_STATS_RL:         GsNm1 (THERMODYNAMICS)  max=  6.81684062214826E-07
DEBUG_STATS_RL:         GsNm1 (THERMODYNAMICS) mean=  2.20044261927528E-11
DEBUG_STATS_RL:         GsNm1 (THERMODYNAMICS) S.D.=  2.28475850310999E-08
DEBUG_STATS_RL:                EtaN (DYNAMICS)  min= -1.89770183625622E+00
DEBUG_STATS_RL:                EtaN (DYNAMICS)  max=  2.25543152426630E+00
DEBUG_STATS_RL:                EtaN (DYNAMICS) mean= -1.59837570158686E-01
DEBUG_STATS_RL:                EtaN (DYNAMICS) S.D.=  6.61044219558966E-01
DEBUG_STATS_RL:                Uvel (DYNAMICS)  min= -8.23246999515997E-02
DEBUG_STATS_RL:                Uvel (DYNAMICS)  max=  1.68943638842567E-01
DEBUG_STATS_RL:                Uvel (DYNAMICS) mean=  5.78742043807748E-03
DEBUG_STATS_RL:                Uvel (DYNAMICS) S.D.=  2.08605647636226E-02
DEBUG_STATS_RL:                Vvel (DYNAMICS)  min= -1.12543825800488E-01
DEBUG_STATS_RL:                Vvel (DYNAMICS)  max=  9.84870522684034E-02
DEBUG_STATS_RL:                Vvel (DYNAMICS) mean= -1.42721275376407E-03
DEBUG_STATS_RL:                Vvel (DYNAMICS) S.D.=  1.54630418471560E-02
DEBUG_STATS_RL:                Wvel (DYNAMICS)  min= -2.10905191767633E-04
DEBUG_STATS_RL:                Wvel (DYNAMICS)  max=  2.19458621263592E-04
DEBUG_STATS_RL:                Wvel (DYNAMICS) mean= -7.00155166124615E-07
DEBUG_STATS_RL:                Wvel (DYNAMICS) S.D.=  2.13305550597447E-05
DEBUG_STATS_RL:               Theta (DYNAMICS)  min= -1.91834020193694E+00
DEBUG_STATS_RL:               Theta (DYNAMICS)  max=  2.98523714081165E+01
DEBUG_STATS_RL:               Theta (DYNAMICS) mean=  3.21477066215453E+00
DEBUG_STATS_RL:               Theta (DYNAMICS) S.D.=  5.85183700426914E+00
DEBUG_STATS_RL:                Salt (DYNAMICS)  min=  9.99999999999999E-03
DEBUG_STATS_RL:                Salt (DYNAMICS)  max=  3.74467238794970E+01
DEBUG_STATS_RL:                Salt (DYNAMICS) mean=  1.88551629110806E+01
DEBUG_STATS_RL:                Salt (DYNAMICS) S.D.=  1.73006380973612E+01
DEBUG_STATS_RL:                  Gu (DYNAMICS)  min= -7.93039898246607E-02
DEBUG_STATS_RL:                  Gu (DYNAMICS)  max=  1.72912653935293E-01
DEBUG_STATS_RL:                  Gu (DYNAMICS) mean=  4.91369989324894E-03
DEBUG_STATS_RL:                  Gu (DYNAMICS) S.D.=  2.22886624313628E-02
DEBUG_STATS_RL:                  Gv (DYNAMICS)  min= -9.23667731275234E-02
DEBUG_STATS_RL:                  Gv (DYNAMICS)  max=  1.02748563151678E-01
DEBUG_STATS_RL:                  Gv (DYNAMICS) mean=  2.97431644578868E-04
DEBUG_STATS_RL:                  Gv (DYNAMICS) S.D.=  1.46940092072325E-02
DEBUG_STATS_RL:               GuNm1 (DYNAMICS)  min= -6.33053626477073E-06
DEBUG_STATS_RL:               GuNm1 (DYNAMICS)  max=  7.28148220206630E-06
DEBUG_STATS_RL:               GuNm1 (DYNAMICS) mean= -3.03656505043149E-08
DEBUG_STATS_RL:               GuNm1 (DYNAMICS) S.D.=  1.13573496417098E-06
DEBUG_STATS_RL:               GvNm1 (DYNAMICS)  min= -9.25765610926622E-06
DEBUG_STATS_RL:               GvNm1 (DYNAMICS)  max=  1.65288639679801E-05
DEBUG_STATS_RL:               GvNm1 (DYNAMICS) mean=  7.75116214620677E-07
DEBUG_STATS_RL:               GvNm1 (DYNAMICS) S.D.=  2.62995885322785E-06
DEBUG_STATS_RL:               GtNm1 (DYNAMICS)  min= -3.40024079191307E-06
DEBUG_STATS_RL:               GtNm1 (DYNAMICS)  max=  2.62439491134850E-06
DEBUG_STATS_RL:               GtNm1 (DYNAMICS) mean=  2.02100374489660E-08
DEBUG_STATS_RL:               GtNm1 (DYNAMICS) S.D.=  2.70175970713049E-07
DEBUG_STATS_RL:               GsNm1 (DYNAMICS)  min= -4.87902349688324E-07
DEBUG_STATS_RL:               GsNm1 (DYNAMICS)  max=  6.81684062214826E-07
DEBUG_STATS_RL:               GsNm1 (DYNAMICS) mean=  2.20044261927528E-11
DEBUG_STATS_RL:               GsNm1 (DYNAMICS) S.D.=  2.28475850310999E-08
DEBUG_STATS_RL:    cg2d_b (SOLVE_FOR_PRESSURE)  min= -1.69521849551082E+04
DEBUG_STATS_RL:    cg2d_b (SOLVE_FOR_PRESSURE)  max=  1.41819152838611E+04
DEBUG_STATS_RL:    cg2d_b (SOLVE_FOR_PRESSURE) mean=  7.26281919275677E-01
DEBUG_STATS_RL:    cg2d_b (SOLVE_FOR_PRESSURE) S.D.=  3.38158644159764E+03
 cg2d: Sum(rhs),rhsMax =   9.91814711540888E-02  1.11346489606737E+00
(PID.TID 0000.0001)  cg2d: iter=     1 ; resid.=  6.39239546338989E-01
(PID.TID 0000.0001)  cg2d: iter=     2 ; resid.=  6.27814182577384E-01
(PID.TID 0000.0001)  cg2d: iter=     3 ; resid.=  5.29912016567588E-01
(PID.TID 0000.0001)  cg2d: iter=     4 ; resid.=  4.22060692321076E-01
(PID.TID 0000.0001)  cg2d: iter=     5 ; resid.=  4.11972604170860E-01
(PID.TID 0000.0001)  cg2d: iter=     6 ; resid.=  3.08380902059687E-01
(PID.TID 0000.0001)  cg2d: iter=     7 ; resid.=  2.77191025370469E-01
(PID.TID 0000.0001)  cg2d: iter=     8 ; resid.=  1.79462722396923E-01
(PID.TID 0000.0001)  cg2d: iter=     9 ; resid.=  1.33766970145651E-01
(PID.TID 0000.0001)  cg2d: iter=    10 ; resid.=  1.23699808281152E-01
(PID.TID 0000.0001)  cg2d: iter=    11 ; resid.=  1.07387318603202E-01
(PID.TID 0000.0001)  cg2d: iter=    12 ; resid.=  8.05589037673790E-02
(PID.TID 0000.0001)  cg2d: iter=    13 ; resid.=  6.48975790065687E-02
(PID.TID 0000.0001)  cg2d: iter=    14 ; resid.=  5.50877635378557E-02
(PID.TID 0000.0001)  cg2d: iter=    15 ; resid.=  4.64346972468052E-02
(PID.TID 0000.0001)  cg2d: iter=    16 ; resid.=  4.28060440821208E-02
(PID.TID 0000.0001)  cg2d: iter=    17 ; resid.=  4.42355729779912E-02
(PID.TID 0000.0001)  cg2d: iter=    18 ; resid.=  3.59205486676248E-02
(PID.TID 0000.0001)  cg2d: iter=    19 ; resid.=  2.83945085613168E-02
(PID.TID 0000.0001)  cg2d: iter=    20 ; resid.=  2.20057878558528E-02
(PID.TID 0000.0001)  cg2d: iter=    21 ; resid.=  1.79877252048792E-02
(PID.TID 0000.0001)  cg2d: iter=    22 ; resid.=  1.51341664212726E-02
(PID.TID 0000.0001)  cg2d: iter=    23 ; resid.=  1.18131194849434E-02
(PID.TID 0000.0001)  cg2d: iter=    24 ; resid.=  1.11964397264482E-02
(PID.TID 0000.0001)  cg2d: iter=    25 ; resid.=  8.41664243863624E-03
(PID.TID 0000.0001)  cg2d: iter=    26 ; resid.=  6.63610932496178E-03
(PID.TID 0000.0001)  cg2d: iter=    27 ; resid.=  5.54497274686486E-03
(PID.TID 0000.0001)  cg2d: iter=    28 ; resid.=  4.60577660116921E-03
(PID.TID 0000.0001)  cg2d: iter=    29 ; resid.=  3.81577598315156E-03
(PID.TID 0000.0001)  cg2d: iter=    30 ; resid.=  3.68348950090020E-03
(PID.TID 0000.0001)  cg2d: iter=    31 ; resid.=  2.97795452418908E-03
(PID.TID 0000.0001)  cg2d: iter=    32 ; resid.=  2.26174237441427E-03
(PID.TID 0000.0001)  cg2d: iter=    33 ; resid.=  1.94379895226660E-03
(PID.TID 0000.0001)  cg2d: iter=    34 ; resid.=  1.68038923552365E-03
(PID.TID 0000.0001)  cg2d: iter=    35 ; resid.=  1.30539147072456E-03
(PID.TID 0000.0001)  cg2d: iter=    36 ; resid.=  1.20511773460807E-03
(PID.TID 0000.0001)  cg2d: iter=    37 ; resid.=  1.10358861386166E-03
(PID.TID 0000.0001)  cg2d: iter=    38 ; resid.=  9.20583918152616E-04
(PID.TID 0000.0001)  cg2d: iter=    39 ; resid.=  8.37582246519339E-04
(PID.TID 0000.0001)  cg2d: iter=    40 ; resid.=  7.39115174892219E-04
(PID.TID 0000.0001)  cg2d: iter=    41 ; resid.=  5.85024328107426E-04
(PID.TID 0000.0001)  cg2d: iter=    42 ; resid.=  4.77210007296371E-04
(PID.TID 0000.0001)  cg2d: iter=    43 ; resid.=  3.73272002983797E-04
(PID.TID 0000.0001)  cg2d: iter=    44 ; resid.=  2.83255840486837E-04
(PID.TID 0000.0001)  cg2d: iter=    45 ; resid.=  2.43002142372587E-04
(PID.TID 0000.0001)  cg2d: iter=    46 ; resid.=  1.93847594374697E-04
(PID.TID 0000.0001)  cg2d: iter=    47 ; resid.=  1.61194160901929E-04
(PID.TID 0000.0001)  cg2d: iter=    48 ; resid.=  1.35991555360303E-04
(PID.TID 0000.0001)  cg2d: iter=    49 ; resid.=  1.12461240908196E-04
(PID.TID 0000.0001)  cg2d: iter=    50 ; resid.=  1.03903368909523E-04
(PID.TID 0000.0001)  cg2d: iter=    51 ; resid.=  8.74836355351304E-05
(PID.TID 0000.0001)  cg2d: iter=    52 ; resid.=  7.53345653349400E-05
(PID.TID 0000.0001)  cg2d: iter=    53 ; resid.=  6.30642000989069E-05
(PID.TID 0000.0001)  cg2d: iter=    54 ; resid.=  5.01927321702604E-05
(PID.TID 0000.0001)  cg2d: iter=    55 ; resid.=  4.39275498175768E-05
(PID.TID 0000.0001)  cg2d: iter=    56 ; resid.=  3.39157642424680E-05
(PID.TID 0000.0001)  cg2d: iter=    57 ; resid.=  2.63055449583050E-05
(PID.TID 0000.0001)  cg2d: iter=    58 ; resid.=  2.07277687924808E-05
(PID.TID 0000.0001)  cg2d: iter=    59 ; resid.=  1.59492047114422E-05
(PID.TID 0000.0001)  cg2d: iter=    60 ; resid.=  1.30216091057671E-05
(PID.TID 0000.0001)  cg2d: iter=    61 ; resid.=  9.74160695364685E-06
(PID.TID 0000.0001)  cg2d: iter=    62 ; resid.=  7.45929678398524E-06
(PID.TID 0000.0001)  cg2d: iter=    63 ; resid.=  6.66157309851361E-06
(PID.TID 0000.0001)  cg2d: iter=    64 ; resid.=  5.65127400200440E-06
(PID.TID 0000.0001)  cg2d: iter=    65 ; resid.=  4.42417438174683E-06
(PID.TID 0000.0001)  cg2d: iter=    66 ; resid.=  3.49490053797020E-06
(PID.TID 0000.0001)  cg2d: iter=    67 ; resid.=  3.00209226094155E-06
(PID.TID 0000.0001)  cg2d: iter=    68 ; resid.=  2.44853830221559E-06
(PID.TID 0000.0001)  cg2d: iter=    69 ; resid.=  1.95595942527420E-06
(PID.TID 0000.0001)  cg2d: iter=    70 ; resid.=  1.75214136535000E-06
(PID.TID 0000.0001)  cg2d: iter=    71 ; resid.=  1.46773754728963E-06
(PID.TID 0000.0001)  cg2d: iter=    72 ; resid.=  1.29179192606437E-06
(PID.TID 0000.0001)  cg2d: iter=    73 ; resid.=  1.15588798970481E-06
(PID.TID 0000.0001)  cg2d: iter=    74 ; resid.=  9.28326424953958E-07
(PID.TID 0000.0001)  cg2d: iter=    75 ; resid.=  7.45284561749813E-07
(PID.TID 0000.0001)  cg2d: iter=    76 ; resid.=  6.47045043313679E-07
(PID.TID 0000.0001)  cg2d: iter=    77 ; resid.=  5.07071997943831E-07
(PID.TID 0000.0001)  cg2d: iter=    78 ; resid.=  4.12662155765036E-07
(PID.TID 0000.0001)  cg2d: iter=    79 ; resid.=  3.81307299100128E-07
(PID.TID 0000.0001)  cg2d: iter=    80 ; resid.=  3.42591003643184E-07
(PID.TID 0000.0001)  cg2d: iter=    81 ; resid.=  2.63589997158039E-07
(PID.TID 0000.0001)  cg2d: iter=    82 ; resid.=  2.05121356723007E-07
(PID.TID 0000.0001)  cg2d: iter=    83 ; resid.=  1.58657930641475E-07
(PID.TID 0000.0001)  cg2d: iter=    84 ; resid.=  1.24697634456656E-07
(PID.TID 0000.0001)  cg2d: iter=    85 ; resid.=  1.03283201820967E-07
(PID.TID 0000.0001)  cg2d: iter=    86 ; resid.=  8.16080713313235E-08
(PID.TID 0000.0001)  cg2d: iter=    87 ; resid.=  7.11897187479325E-08
(PID.TID 0000.0001)  cg2d: iter=    88 ; resid.=  6.47040859492264E-08
(PID.TID 0000.0001)  cg2d: iter=    89 ; resid.=  5.37282469953579E-08
(PID.TID 0000.0001)  cg2d: iter=    90 ; resid.=  4.16120420573221E-08
(PID.TID 0000.0001)  cg2d: iter=    91 ; resid.=  3.22784450969009E-08
(PID.TID 0000.0001)  cg2d: iter=    92 ; resid.=  2.36375230251115E-08
(PID.TID 0000.0001)  cg2d: iter=    93 ; resid.=  1.77793029321667E-08
(PID.TID 0000.0001)  cg2d: iter=    94 ; resid.=  1.31043104819567E-08
(PID.TID 0000.0001)  cg2d: iter=    95 ; resid.=  1.04486585746320E-08
(PID.TID 0000.0001)  cg2d: iter=    96 ; resid.=  7.21439538960802E-09
(PID.TID 0000.0001)  cg2d: iter=    97 ; resid.=  5.62259817560137E-09
(PID.TID 0000.0001)  cg2d: iter=    98 ; resid.=  4.67243448007880E-09
(PID.TID 0000.0001)  cg2d: iter=    99 ; resid.=  3.76256565553061E-09
(PID.TID 0000.0001)  cg2d: iter=   100 ; resid.=  2.91044867267680E-09
(PID.TID 0000.0001)  cg2d: iter=   101 ; resid.=  2.09026275802032E-09
(PID.TID 0000.0001)  cg2d: iter=   102 ; resid.=  1.64612197890465E-09
(PID.TID 0000.0001)  cg2d: iter=   103 ; resid.=  1.34802213037921E-09
(PID.TID 0000.0001)  cg2d: iter=   104 ; resid.=  1.14324309095272E-09
(PID.TID 0000.0001)  cg2d: iter=   105 ; resid.=  9.48920562115135E-10
(PID.TID 0000.0001)  cg2d: iter=   106 ; resid.=  8.25972605880494E-10
(PID.TID 0000.0001)  cg2d: iter=   107 ; resid.=  6.78349827154544E-10
(PID.TID 0000.0001)  cg2d: iter=   108 ; resid.=  5.36964526181124E-10
(PID.TID 0000.0001)  cg2d: iter=   109 ; resid.=  4.55891105030933E-10
(PID.TID 0000.0001)  cg2d: iter=   110 ; resid.=  3.84287858994294E-10
(PID.TID 0000.0001)  cg2d: iter=   111 ; resid.=  2.96966791352123E-10
(PID.TID 0000.0001)  cg2d: iter=   112 ; resid.=  2.27325092167207E-10
(PID.TID 0000.0001)  cg2d: iter=   113 ; resid.=  1.80063688618931E-10
(PID.TID 0000.0001)  cg2d: iter=   114 ; resid.=  1.45864214284774E-10
(PID.TID 0000.0001)  cg2d: iter=   115 ; resid.=  1.17137450099262E-10
(PID.TID 0000.0001)  cg2d: iter=   116 ; resid.=  9.35266630526080E-11
(PID.TID 0000.0001)  cg2d: iter=   117 ; resid.=  7.39888272520612E-11
(PID.TID 0000.0001)  cg2d: iter=   118 ; resid.=  5.62635986958159E-11
(PID.TID 0000.0001)  cg2d: iter=   119 ; resid.=  4.01216500651908E-11
(PID.TID 0000.0001)  cg2d: iter=   120 ; resid.=  2.95652635354808E-11
(PID.TID 0000.0001)  cg2d: iter=   121 ; resid.=  2.15514546037998E-11
(PID.TID 0000.0001)  cg2d: iter=   122 ; resid.=  1.58544690452620E-11
(PID.TID 0000.0001)  cg2d: iter=   123 ; resid.=  1.16489001254251E-11
(PID.TID 0000.0001)  cg2d: iter=   124 ; resid.=  7.91841607621190E-12
(PID.TID 0000.0001)  cg2d: iter=   125 ; resid.=  5.61767134119325E-12
(PID.TID 0000.0001)  cg2d: iter=   126 ; resid.=  3.88320037192569E-12
(PID.TID 0000.0001)  cg2d: iter=   127 ; resid.=  2.71055582267679E-12
(PID.TID 0000.0001)  cg2d: iter=   128 ; resid.=  1.97758752780063E-12
(PID.TID 0000.0001)  cg2d: iter=   129 ; resid.=  1.42260931089582E-12
(PID.TID 0000.0001)  cg2d: iter=   130 ; resid.=  1.05429815966113E-12
(PID.TID 0000.0001)  cg2d: iter=   131 ; resid.=  8.28785268786099E-13
(PID.TID 0000.0001)  cg2d: iter=   132 ; resid.=  6.16618072019463E-13
(PID.TID 0000.0001)  cg2d: iter=   133 ; resid.=  4.63518178634345E-13
(PID.TID 0000.0001)  cg2d: iter=   134 ; resid.=  3.77686126767266E-13
(PID.TID 0000.0001)  cg2d: iter=   135 ; resid.=  3.09372266329966E-13
(PID.TID 0000.0001)  cg2d: iter=   136 ; resid.=  2.25034235361900E-13
(PID.TID 0000.0001)  cg2d: iter=   137 ; resid.=  1.81201102599342E-13
(PID.TID 0000.0001)  cg2d: iter=   138 ; resid.=  1.44808915864102E-13
(PID.TID 0000.0001)  cg2d: iter=   139 ; resid.=  1.14043641435775E-13
(PID.TID 0000.0001)  cg2d: iter=   140 ; resid.=  8.58814069267735E-14
DEBUG_STATS_RL:    cg2d_x (SOLVE_FOR_PRESSURE)  min= -2.08998776196673E+01
DEBUG_STATS_RL:    cg2d_x (SOLVE_FOR_PRESSURE)  max=  1.58409858968960E+01
DEBUG_STATS_RL:    cg2d_x (SOLVE_FOR_PRESSURE) mean= -1.70872298744036E+00
DEBUG_STATS_RL:    cg2d_x (SOLVE_FOR_PRESSURE) S.D.=  6.72471694299205E+00
(PID.TID 0000.0001)      cg2d_init_res =   9.83354954720812E-01
(PID.TID 0000.0001)      cg2d_iters(min,last) =      -1     140
(PID.TID 0000.0001)      cg2d_last_res =   8.58814069267735E-14
(PID.TID 0000.0001) // =======================================================
(PID.TID 0000.0001) // Begin MONITOR dynamic field statistics
(PID.TID 0000.0001) // =======================================================
(PID.TID 0000.0001) %MON time_tsnumber                =                    11
(PID.TID 0000.0001) %MON time_secondsf                =   9.5040000000000E+05
(PID.TID 0000.0001) %MON dynstat_eta_max              =   1.6147793982565E+00
(PID.TID 0000.0001) %MON dynstat_eta_min              =  -2.1304666278957E+00
(PID.TID 0000.0001) %MON dynstat_eta_mean             =  -7.5778512677940E-04
(PID.TID 0000.0001) %MON dynstat_eta_sd               =   5.9150989101171E-01
(PID.TID 0000.0001) %MON dynstat_eta_del2             =   1.8641435579567E-03
(PID.TID 0000.0001) %MON dynstat_uvel_max             =   1.7513249107915E-01
(PID.TID 0000.0001) %MON dynstat_uvel_min             =  -8.2135870226707E-02
(PID.TID 0000.0001) %MON dynstat_uvel_mean            =   1.2454901473285E-03
(PID.TID 0000.0001) %MON dynstat_uvel_sd              =   1.3902583901870E-02
(PID.TID 0000.0001) %MON dynstat_uvel_del2            =   9.2232292631384E-05
(PID.TID 0000.0001) %MON dynstat_vvel_max             =   1.0172702223593E-01
(PID.TID 0000.0001) %MON dynstat_vvel_min             =  -1.0847201212792E-01
(PID.TID 0000.0001) %MON dynstat_vvel_mean            =  -1.2905621754938E-04
(PID.TID 0000.0001) %MON dynstat_vvel_sd              =   1.0237883562818E-02
(PID.TID 0000.0001) %MON dynstat_vvel_del2            =   1.0124403890074E-04
(PID.TID 0000.0001) %MON dynstat_wvel_max             =   2.0802465416277E-04
(PID.TID 0000.0001) %MON dynstat_wvel_min             =  -2.0776664457130E-04
(PID.TID 0000.0001) %MON dynstat_wvel_mean            =   3.2929393337373E-22
(PID.TID 0000.0001) %MON dynstat_wvel_sd              =   2.2195267788074E-05
(PID.TID 0000.0001) %MON dynstat_wvel_del2            =   2.4759540300450E-07
(PID.TID 0000.0001) %MON dynstat_theta_max            =   2.9852371408117E+01
(PID.TID 0000.0001) %MON dynstat_theta_min            =  -1.9183402019369E+00
(PID.TID 0000.0001) %MON dynstat_theta_mean           =   3.6294575896032E+00
(PID.TID 0000.0001) %MON dynstat_theta_sd             =   4.4149481015815E+00
(PID.TID 0000.0001) %MON dynstat_theta_del2           =   5.0271153821355E-03
(PID.TID 0000.0001) %MON dynstat_salt_max             =   3.7446723879497E+01
(PID.TID 0000.0001) %MON dynstat_salt_min             =   2.9770549394593E+01
(PID.TID 0000.0001) %MON dynstat_salt_mean            =   3.4727974793434E+01
(PID.TID 0000.0001) %MON dynstat_salt_sd              =   2.9615682429071E-01
(PID.TID 0000.0001) %MON dynstat_salt_del2            =   1.0099128415960E-03
(PID.TID 0000.0001) %MON dynstat_sst_max              =   2.9852371408117E+01
(PID.TID 0000.0001) %MON dynstat_sst_min              =  -1.9183402019369E+00
(PID.TID 0000.0001) %MON dynstat_sst_mean             =   1.8624198625428E+01
(PID.TID 0000.0001) %MON dynstat_sst_sd               =   9.0761007414412E+00
(PID.TID 0000.0001) %MON dynstat_sst_del2             =   2.6155018276895E-02
(PID.TID 0000.0001) %MON dynstat_sss_max              =   3.7440307860614E+01
(PID.TID 0000.0001) %MON dynstat_sss_min              =   2.9770549394593E+01
(PID.TID 0000.0001) %MON dynstat_sss_mean             =   3.4864309462913E+01
(PID.TID 0000.0001) %MON dynstat_sss_sd               =   9.6776997794648E-01
(PID.TID 0000.0001) %MON dynstat_sss_del2             =   7.9914446026664E-03
(PID.TID 0000.0001) %MON forcing_qnet_max             =   4.3637268066406E+02
(PID.TID 0000.0001) %MON forcing_qnet_min             =  -1.8235535939535E+02
(PID.TID 0000.0001) %MON forcing_qnet_mean            =  -1.6575085780159E+01
(PID.TID 0000.0001) %MON forcing_qnet_sd              =   1.1080111313050E+02
(PID.TID 0000.0001) %MON forcing_qnet_del2            =   1.0090595771019E+00
(PID.TID 0000.0001) %MON forcing_qsw_max              =   0.0000000000000E+00
(PID.TID 0000.0001) %MON forcing_qsw_min              =   0.0000000000000E+00
(PID.TID 0000.0001) %MON forcing_qsw_mean             =   0.0000000000000E+00
(PID.TID 0000.0001) %MON forcing_qsw_sd               =   0.0000000000000E+00
(PID.TID 0000.0001) %MON forcing_qsw_del2             =   0.0000000000000E+00
(PID.TID 0000.0001) %MON forcing_empmr_max            =   8.1894273288678E-05
(PID.TID 0000.0001) %MON forcing_empmr_min            =  -7.3480514117819E-05
(PID.TID 0000.0001) %MON forcing_empmr_mean           =   8.7408827338311E-07
(PID.TID 0000.0001) %MON forcing_empmr_sd             =   2.8361319601892E-05
(PID.TID 0000.0001) %MON forcing_empmr_del2           =   3.6367323918582E-07
(PID.TID 0000.0001) %MON forcing_fu_max               =   2.7009907364845E-01
(PID.TID 0000.0001) %MON forcing_fu_min               =  -1.6681347042322E-01
(PID.TID 0000.0001) %MON forcing_fu_mean              =   1.6040199257752E-02
(PID.TID 0000.0001) %MON forcing_fu_sd                =   9.0490139077950E-02
(PID.TID 0000.0001) %MON forcing_fu_del2              =   6.8923424175348E-04
(PID.TID 0000.0001) %MON forcing_fv_max               =   2.2372179478407E-01
(PID.TID 0000.0001) %MON forcing_fv_min               =  -1.8106018751860E-01
(PID.TID 0000.0001) %MON forcing_fv_mean              =  -5.6277103738091E-03
(PID.TID 0000.0001) %MON forcing_fv_sd                =   4.6864764071854E-02
(PID.TID 0000.0001) %MON forcing_fv_del2              =   4.6941931464937E-04
(PID.TID 0000.0001) %MON trAdv_CFL_u_max              =   5.0332937203544E-02
(PID.TID 0000.0001) %MON trAdv_CFL_v_max              =   2.1169346762642E-02
(PID.TID 0000.0001) %MON trAdv_CFL_w_max              =   7.5896295350512E-02
(PID.TID 0000.0001) %MON advcfl_uvel_max              =   5.0880316495715E-02
(PID.TID 0000.0001) %MON advcfl_vvel_max              =   2.1074372274536E-02
(PID.TID 0000.0001) %MON advcfl_wvel_max              =   7.2698293521479E-02
(PID.TID 0000.0001) %MON advcfl_W_hf_max              =   8.2263858458515E-02
(PID.TID 0000.0001) %MON pe_b_mean                    =   4.4771942282541E-04
(PID.TID 0000.0001) %MON ke_max                       =   1.5396589154654E-02
(PID.TID 0000.0001) %MON ke_mean                      =   1.3557881241874E-04
(PID.TID 0000.0001) %MON ke_vol                       =   1.3226782436723E+18
(PID.TID 0000.0001) %MON vort_r_min                   =  -4.8886912942469E-07
(PID.TID 0000.0001) %MON vort_r_max                   =   3.6495862397118E-07
(PID.TID 0000.0001) %MON vort_a_mean                  =  -2.5274806432044E-05
(PID.TID 0000.0001) %MON vort_a_sd                    =   7.3604711865998E-05
(PID.TID 0000.0001) %MON vort_p_mean                  =  -3.1845654583083E-05
(PID.TID 0000.0001) %MON vort_p_sd                    =   1.3162297911483E-04
(PID.TID 0000.0001) %MON surfExpan_theta_mean         =   3.3234689491940E-06
(PID.TID 0000.0001) %MON surfExpan_salt_mean          =   1.5615743198265E-07
(PID.TID 0000.0001) // =======================================================
(PID.TID 0000.0001) // End MONITOR dynamic field statistics
(PID.TID 0000.0001) // =======================================================
 EXTERNAL_FIELDS_LOAD,        11 : iP,iLd,i0,i1=   12    1   12    1 ; Wght=  0.1333333333  0.8666666667
 EXTERNAL_FIELDS_LOAD: (fu0,1),fu,fv= -4.5368E-02 -3.5633E-02 -3.6931E-02 -5.8989E-02
 EXTERNAL_FIELDS_LOAD: SST,SSS,Q,E-P=  7.1702E-01  3.4621E+01  2.6559E+02  1.1425E-05
DEBUG_STATS_RL:          Uvel (THERMODYNAMICS)  min= -8.21358702267073E-02
DEBUG_STATS_RL:          Uvel (THERMODYNAMICS)  max=  1.75132491079153E-01
DEBUG_STATS_RL:          Uvel (THERMODYNAMICS) mean=  5.60505613977458E-03
DEBUG_STATS_RL:          Uvel (THERMODYNAMICS) S.D.=  2.22242943774592E-02
DEBUG_STATS_RL:          Vvel (THERMODYNAMICS)  min= -1.08472012127922E-01
DEBUG_STATS_RL:          Vvel (THERMODYNAMICS)  max=  1.01727022235927E-01
DEBUG_STATS_RL:          Vvel (THERMODYNAMICS) mean= -1.14819814358595E-03
DEBUG_STATS_RL:          Vvel (THERMODYNAMICS) S.D.=  1.51033045393365E-02
DEBUG_STATS_RL:          Wvel (THERMODYNAMICS)  min= -2.07766644571305E-04
DEBUG_STATS_RL:          Wvel (THERMODYNAMICS)  max=  2.08024654162771E-04
DEBUG_STATS_RL:          Wvel (THERMODYNAMICS) mean= -5.64521079458761E-07
DEBUG_STATS_RL:          Wvel (THERMODYNAMICS) S.D.=  1.99995120616263E-05
DEBUG_STATS_RL:         Theta (THERMODYNAMICS)  min= -1.91571013828866E+00
DEBUG_STATS_RL:         Theta (THERMODYNAMICS)  max=  2.98509135002773E+01
DEBUG_STATS_RL:         Theta (THERMODYNAMICS) mean=  3.21561294442202E+00
DEBUG_STATS_RL:         Theta (THERMODYNAMICS) S.D.=  5.85252733270623E+00
DEBUG_STATS_RL:          Salt (THERMODYNAMICS)  min=  9.99999999999999E-03
DEBUG_STATS_RL:          Salt (THERMODYNAMICS)  max=  3.74469161765950E+01
DEBUG_STATS_RL:          Salt (THERMODYNAMICS) mean=  1.88551700583024E+01
DEBUG_STATS_RL:          Salt (THERMODYNAMICS) S.D.=  1.73006461449157E+01
DEBUG_STATS_RL:         GtNm1 (THERMODYNAMICS)  min= -4.33042509041046E-06
DEBUG_STATS_RL:         GtNm1 (THERMODYNAMICS)  max=  4.00963876168384E-06
DEBUG_STATS_RL:         GtNm1 (THERMODYNAMICS) mean=  1.95086660178594E-08
DEBUG_STATS_RL:         GtNm1 (THERMODYNAMICS) S.D.=  2.67388407263189E-07
DEBUG_STATS_RL:         GsNm1 (THERMODYNAMICS)  min= -9.47251078227557E-07
DEBUG_STATS_RL:         GsNm1 (THERMODYNAMICS)  max=  1.12888300578265E-06
DEBUG_STATS_RL:         GsNm1 (THERMODYNAMICS) mean=  6.71570127683240E-11
DEBUG_STATS_RL:         GsNm1 (THERMODYNAMICS) S.D.=  2.35974796941391E-08
DEBUG_STATS_RL:                EtaN (DYNAMICS)  min= -2.13046662789569E+00
DEBUG_STATS_RL:                EtaN (DYNAMICS)  max=  1.61477939825649E+00
DEBUG_STATS_RL:                EtaN (DYNAMICS) mean= -1.74181752032657E-01
DEBUG_STATS_RL:                EtaN (DYNAMICS) S.D.=  6.85496120590420E-01
DEBUG_STATS_RL:                Uvel (DYNAMICS)  min= -8.21358702267073E-02
DEBUG_STATS_RL:                Uvel (DYNAMICS)  max=  1.75132491079153E-01
DEBUG_STATS_RL:                Uvel (DYNAMICS) mean=  5.60505613977458E-03
DEBUG_STATS_RL:                Uvel (DYNAMICS) S.D.=  2.22242943774592E-02
DEBUG_STATS_RL:                Vvel (DYNAMICS)  min= -1.08472012127922E-01
DEBUG_STATS_RL:                Vvel (DYNAMICS)  max=  1.01727022235927E-01
DEBUG_STATS_RL:                Vvel (DYNAMICS) mean= -1.14819814358595E-03
DEBUG_STATS_RL:                Vvel (DYNAMICS) S.D.=  1.51033045393365E-02
DEBUG_STATS_RL:                Wvel (DYNAMICS)  min= -2.07766644571305E-04
DEBUG_STATS_RL:                Wvel (DYNAMICS)  max=  2.08024654162771E-04
DEBUG_STATS_RL:                Wvel (DYNAMICS) mean= -5.64521079458761E-07
DEBUG_STATS_RL:                Wvel (DYNAMICS) S.D.=  1.99995120616263E-05
DEBUG_STATS_RL:               Theta (DYNAMICS)  min= -1.91571013828866E+00
DEBUG_STATS_RL:               Theta (DYNAMICS)  max=  2.98509135002773E+01
DEBUG_STATS_RL:               Theta (DYNAMICS) mean=  3.21561294442202E+00
DEBUG_STATS_RL:               Theta (DYNAMICS) S.D.=  5.85252733270623E+00
DEBUG_STATS_RL:                Salt (DYNAMICS)  min=  9.99999999999999E-03
DEBUG_STATS_RL:                Salt (DYNAMICS)  max=  3.74469161765950E+01
DEBUG_STATS_RL:                Salt (DYNAMICS) mean=  1.88551700583024E+01
DEBUG_STATS_RL:                Salt (DYNAMICS) S.D.=  1.73006461449157E+01
DEBUG_STATS_RL:                  Gu (DYNAMICS)  min= -8.42245698776062E-02
DEBUG_STATS_RL:                  Gu (DYNAMICS)  max=  1.79223261940936E-01
DEBUG_STATS_RL:                  Gu (DYNAMICS) mean=  4.74352003131033E-03
DEBUG_STATS_RL:                  Gu (DYNAMICS) S.D.=  2.34099483404892E-02
DEBUG_STATS_RL:                  Gv (DYNAMICS)  min= -9.85872952381231E-02
DEBUG_STATS_RL:                  Gv (DYNAMICS)  max=  1.03927737615324E-01
DEBUG_STATS_RL:                  Gv (DYNAMICS) mean=  6.45600949602752E-04
DEBUG_STATS_RL:                  Gv (DYNAMICS) S.D.=  1.45391278576965E-02
DEBUG_STATS_RL:               GuNm1 (DYNAMICS)  min= -6.18547039343098E-06
DEBUG_STATS_RL:               GuNm1 (DYNAMICS)  max=  7.25675921208080E-06
DEBUG_STATS_RL:               GuNm1 (DYNAMICS) mean= -2.86996576982990E-08
DEBUG_STATS_RL:               GuNm1 (DYNAMICS) S.D.=  1.11947077271565E-06
DEBUG_STATS_RL:               GvNm1 (DYNAMICS)  min= -8.97969352047089E-06
DEBUG_STATS_RL:               GvNm1 (DYNAMICS)  max=  1.65982227632523E-05
DEBUG_STATS_RL:               GvNm1 (DYNAMICS) mean=  7.73900223479902E-07
DEBUG_STATS_RL:               GvNm1 (DYNAMICS) S.D.=  2.60975006850076E-06
DEBUG_STATS_RL:               GtNm1 (DYNAMICS)  min= -4.33042509041046E-06
DEBUG_STATS_RL:               GtNm1 (DYNAMICS)  max=  4.00963876168384E-06
DEBUG_STATS_RL:               GtNm1 (DYNAMICS) mean=  1.95086660178594E-08
DEBUG_STATS_RL:               GtNm1 (DYNAMICS) S.D.=  2.67388407263189E-07
DEBUG_STATS_RL:               GsNm1 (DYNAMICS)  min= -9.47251078227557E-07
DEBUG_STATS_RL:               GsNm1 (DYNAMICS)  max=  1.12888300578265E-06
DEBUG_STATS_RL:               GsNm1 (DYNAMICS) mean=  6.71570127683240E-11
DEBUG_STATS_RL:               GsNm1 (DYNAMICS) S.D.=  2.35974796941391E-08
DEBUG_STATS_RL:    cg2d_b (SOLVE_FOR_PRESSURE)  min= -1.63693958007435E+04
DEBUG_STATS_RL:    cg2d_b (SOLVE_FOR_PRESSURE)  max=  1.37899581753775E+04
DEBUG_STATS_RL:    cg2d_b (SOLVE_FOR_PRESSURE) mean=  7.96997491615090E-01
DEBUG_STATS_RL:    cg2d_b (SOLVE_FOR_PRESSURE) S.D.=  3.28656287281623E+03
 cg2d: Sum(rhs),rhsMax =   1.12713335027641E-01  1.07518574403403E+00
(PID.TID 0000.0001)  cg2d: iter=     1 ; resid.=  5.25502602150503E-01
(PID.TID 0000.0001)  cg2d: iter=     2 ; resid.=  4.58901813612197E-01
(PID.TID 0000.0001)  cg2d: iter=     3 ; resid.=  3.97800347567473E-01
(PID.TID 0000.0001)  cg2d: iter=     4 ; resid.=  3.11128591852791E-01
(PID.TID 0000.0001)  cg2d: iter=     5 ; resid.=  3.06694780819169E-01
(PID.TID 0000.0001)  cg2d: iter=     6 ; resid.=  2.31828017539136E-01
(PID.TID 0000.0001)  cg2d: iter=     7 ; resid.=  2.26256384963810E-01
(PID.TID 0000.0001)  cg2d: iter=     8 ; resid.=  1.42578020604224E-01
(PID.TID 0000.0001)  cg2d: iter=     9 ; resid.=  9.63887046060292E-02
(PID.TID 0000.0001)  cg2d: iter=    10 ; resid.=  8.50906578104572E-02
(PID.TID 0000.0001)  cg2d: iter=    11 ; resid.=  7.56534316208088E-02
(PID.TID 0000.0001)  cg2d: iter=    12 ; resid.=  5.57930878119022E-02
(PID.TID 0000.0001)  cg2d: iter=    13 ; resid.=  4.26901178599359E-02
(PID.TID 0000.0001)  cg2d: iter=    14 ; resid.=  3.61423618287399E-02
(PID.TID 0000.0001)  cg2d: iter=    15 ; resid.=  2.88844619609717E-02
(PID.TID 0000.0001)  cg2d: iter=    16 ; resid.=  2.43906955035891E-02
(PID.TID 0000.0001)  cg2d: iter=    17 ; resid.=  2.47191438821014E-02
(PID.TID 0000.0001)  cg2d: iter=    18 ; resid.=  2.16004316183078E-02
(PID.TID 0000.0001)  cg2d: iter=    19 ; resid.=  1.82421765209909E-02
(PID.TID 0000.0001)  cg2d: iter=    20 ; resid.=  1.49869952890868E-02
(PID.TID 0000.0001)  cg2d: iter=    21 ; resid.=  1.22948017212561E-02
(PID.TID 0000.0001)  cg2d: iter=    22 ; resid.=  1.04828767275135E-02
(PID.TID 0000.0001)  cg2d: iter=    23 ; resid.=  8.06564478124261E-03
(PID.TID 0000.0001)  cg2d: iter=    24 ; resid.=  7.65667943832738E-03
(PID.TID 0000.0001)  cg2d: iter=    25 ; resid.=  5.91832592331662E-03
(PID.TID 0000.0001)  cg2d: iter=    26 ; resid.=  4.68165167217270E-03
(PID.TID 0000.0001)  cg2d: iter=    27 ; resid.=  3.86389642540499E-03
(PID.TID 0000.0001)  cg2d: iter=    28 ; resid.=  3.16268485854207E-03
(PID.TID 0000.0001)  cg2d: iter=    29 ; resid.=  2.41435294273468E-03
(PID.TID 0000.0001)  cg2d: iter=    30 ; resid.=  2.23768752148439E-03
(PID.TID 0000.0001)  cg2d: iter=    31 ; resid.=  1.80309561030877E-03
(PID.TID 0000.0001)  cg2d: iter=    32 ; resid.=  1.30821026308191E-03
(PID.TID 0000.0001)  cg2d: iter=    33 ; resid.=  1.08477637003684E-03
(PID.TID 0000.0001)  cg2d: iter=    34 ; resid.=  9.14850808094015E-04
(PID.TID 0000.0001)  cg2d: iter=    35 ; resid.=  6.56510799524945E-04
(PID.TID 0000.0001)  cg2d: iter=    36 ; resid.=  5.39784542607959E-04
(PID.TID 0000.0001)  cg2d: iter=    37 ; resid.=  4.81304055480224E-04
(PID.TID 0000.0001)  cg2d: iter=    38 ; resid.=  3.89987400954846E-04
(PID.TID 0000.0001)  cg2d: iter=    39 ; resid.=  3.38642606450797E-04
(PID.TID 0000.0001)  cg2d: iter=    40 ; resid.=  3.23471701733662E-04
(PID.TID 0000.0001)  cg2d: iter=    41 ; resid.=  2.84176646792915E-04
(PID.TID 0000.0001)  cg2d: iter=    42 ; resid.=  2.49070240280810E-04
(PID.TID 0000.0001)  cg2d: iter=    43 ; resid.=  2.08187399556924E-04
(PID.TID 0000.0001)  cg2d: iter=    44 ; resid.=  1.60753598934117E-04
(PID.TID 0000.0001)  cg2d: iter=    45 ; resid.=  1.46132599104510E-04
(PID.TID 0000.0001)  cg2d: iter=    46 ; resid.=  1.15929554044239E-04
(PID.TID 0000.0001)  cg2d: iter=    47 ; resid.=  8.94723756569796E-05
(PID.TID 0000.0001)  cg2d: iter=    48 ; resid.=  7.34490800349782E-05
(PID.TID 0000.0001)  cg2d: iter=    49 ; resid.=  5.66929501165926E-05
(PID.TID 0000.0001)  cg2d: iter=    50 ; resid.=  4.99476923232465E-05
(PID.TID 0000.0001)  cg2d: iter=    51 ; resid.=  4.26179906402118E-05
(PID.TID 0000.0001)  cg2d: iter=    52 ; resid.=  3.77439078773919E-05
(PID.TID 0000.0001)  cg2d: iter=    53 ; resid.=  3.35975068153180E-05
(PID.TID 0000.0001)  cg2d: iter=    54 ; resid.=  2.83382019210756E-05
(PID.TID 0000.0001)  cg2d: iter=    55 ; resid.=  2.62411527447410E-05
(PID.TID 0000.0001)  cg2d: iter=    56 ; resid.=  2.19679737528399E-05
(PID.TID 0000.0001)  cg2d: iter=    57 ; resid.=  1.76489558941625E-05
(PID.TID 0000.0001)  cg2d: iter=    58 ; resid.=  1.39791522421269E-05
(PID.TID 0000.0001)  cg2d: iter=    59 ; resid.=  1.06839298693326E-05
(PID.TID 0000.0001)  cg2d: iter=    60 ; resid.=  8.75696514595541E-06
(PID.TID 0000.0001)  cg2d: iter=    61 ; resid.=  6.70437822878541E-06
(PID.TID 0000.0001)  cg2d: iter=    62 ; resid.=  5.02308862670481E-06
(PID.TID 0000.0001)  cg2d: iter=    63 ; resid.=  4.45564503308301E-06
(PID.TID 0000.0001)  cg2d: iter=    64 ; resid.=  4.21562509945353E-06
(PID.TID 0000.0001)  cg2d: iter=    65 ; resid.=  3.40631385125988E-06
(PID.TID 0000.0001)  cg2d: iter=    66 ; resid.=  2.90089430700947E-06
(PID.TID 0000.0001)  cg2d: iter=    67 ; resid.=  2.57540637835737E-06
(PID.TID 0000.0001)  cg2d: iter=    68 ; resid.=  2.13139510565872E-06
(PID.TID 0000.0001)  cg2d: iter=    69 ; resid.=  1.63055103000475E-06
(PID.TID 0000.0001)  cg2d: iter=    70 ; resid.=  1.39109789273540E-06
(PID.TID 0000.0001)  cg2d: iter=    71 ; resid.=  1.15663014353750E-06
(PID.TID 0000.0001)  cg2d: iter=    72 ; resid.=  9.97987976066127E-07
(PID.TID 0000.0001)  cg2d: iter=    73 ; resid.=  8.90894490136373E-07
(PID.TID 0000.0001)  cg2d: iter=    74 ; resid.=  7.63629143054557E-07
(PID.TID 0000.0001)  cg2d: iter=    75 ; resid.=  6.09183819723124E-07
(PID.TID 0000.0001)  cg2d: iter=    76 ; resid.=  5.27422785674558E-07
(PID.TID 0000.0001)  cg2d: iter=    77 ; resid.=  3.96679907358028E-07
(PID.TID 0000.0001)  cg2d: iter=    78 ; resid.=  3.00868877176624E-07
(PID.TID 0000.0001)  cg2d: iter=    79 ; resid.=  2.70012561156019E-07
(PID.TID 0000.0001)  cg2d: iter=    80 ; resid.=  2.27217071443556E-07
(PID.TID 0000.0001)  cg2d: iter=    81 ; resid.=  1.77774705005931E-07
(PID.TID 0000.0001)  cg2d: iter=    82 ; resid.=  1.35172107941105E-07
(PID.TID 0000.0001)  cg2d: iter=    83 ; resid.=  1.08466018520467E-07
(PID.TID 0000.0001)  cg2d: iter=    84 ; resid.=  8.50152781391994E-08
(PID.TID 0000.0001)  cg2d: iter=    85 ; resid.=  6.98873706885498E-08
(PID.TID 0000.0001)  cg2d: iter=    86 ; resid.=  5.59262628923822E-08
(PID.TID 0000.0001)  cg2d: iter=    87 ; resid.=  4.50167659760367E-08
(PID.TID 0000.0001)  cg2d: iter=    88 ; resid.=  4.06833381461944E-08
(PID.TID 0000.0001)  cg2d: iter=    89 ; resid.=  3.48209804623386E-08
(PID.TID 0000.0001)  cg2d: iter=    90 ; resid.=  2.67311058224836E-08
(PID.TID 0000.0001)  cg2d: iter=    91 ; resid.=  2.17505545521504E-08
(PID.TID 0000.0001)  cg2d: iter=    92 ; resid.=  1.59647458155282E-08
(PID.TID 0000.0001)  cg2d: iter=    93 ; resid.=  1.22137377062048E-08
(PID.TID 0000.0001)  cg2d: iter=    94 ; resid.=  8.80969981770395E-09
(PID.TID 0000.0001)  cg2d: iter=    95 ; resid.=  6.66787159141813E-09
(PID.TID 0000.0001)  cg2d: iter=    96 ; resid.=  4.70384511520258E-09
(PID.TID 0000.0001)  cg2d: iter=    97 ; resid.=  3.43594373199722E-09
(PID.TID 0000.0001)  cg2d: iter=    98 ; resid.=  2.84952938563490E-09
(PID.TID 0000.0001)  cg2d: iter=    99 ; resid.=  2.36529885315104E-09
(PID.TID 0000.0001)  cg2d: iter=   100 ; resid.=  1.86903275096974E-09
(PID.TID 0000.0001)  cg2d: iter=   101 ; resid.=  1.36163459658148E-09
(PID.TID 0000.0001)  cg2d: iter=   102 ; resid.=  1.02569282766185E-09
(PID.TID 0000.0001)  cg2d: iter=   103 ; resid.=  7.68816809707257E-10
(PID.TID 0000.0001)  cg2d: iter=   104 ; resid.=  6.01745523893744E-10
(PID.TID 0000.0001)  cg2d: iter=   105 ; resid.=  4.38775663701021E-10
(PID.TID 0000.0001)  cg2d: iter=   106 ; resid.=  3.43036224447142E-10
(PID.TID 0000.0001)  cg2d: iter=   107 ; resid.=  2.62817789062064E-10
(PID.TID 0000.0001)  cg2d: iter=   108 ; resid.=  1.91639795563747E-10
(PID.TID 0000.0001)  cg2d: iter=   109 ; resid.=  1.52256264543291E-10
(PID.TID 0000.0001)  cg2d: iter=   110 ; resid.=  1.29434883079476E-10
(PID.TID 0000.0001)  cg2d: iter=   111 ; resid.=  1.10439777385769E-10
(PID.TID 0000.0001)  cg2d: iter=   112 ; resid.=  9.10484148527790E-11
(PID.TID 0000.0001)  cg2d: iter=   113 ; resid.=  7.70239175388018E-11
(PID.TID 0000.0001)  cg2d: iter=   114 ; resid.=  6.50302868780562E-11
(PID.TID 0000.0001)  cg2d: iter=   115 ; resid.=  5.25170152781388E-11
(PID.TID 0000.0001)  cg2d: iter=   116 ; resid.=  4.34621825304304E-11
(PID.TID 0000.0001)  cg2d: iter=   117 ; resid.=  3.63504386091438E-11
(PID.TID 0000.0001)  cg2d: iter=   118 ; resid.=  3.04260295369427E-11
(PID.TID 0000.0001)  cg2d: iter=   119 ; resid.=  2.44340991501134E-11
(PID.TID 0000.0001)  cg2d: iter=   120 ; resid.=  1.90234710297243E-11
(PID.TID 0000.0001)  cg2d: iter=   121 ; resid.=  1.53843573601016E-11
(PID.TID 0000.0001)  cg2d: iter=   122 ; resid.=  1.21663845971662E-11
(PID.TID 0000.0001)  cg2d: iter=   123 ; resid.=  9.27910796275460E-12
(PID.TID 0000.0001)  cg2d: iter=   124 ; resid.=  6.56817585711092E-12
(PID.TID 0000.0001)  cg2d: iter=   125 ; resid.=  4.58405347464187E-12
(PID.TID 0000.0001)  cg2d: iter=   126 ; resid.=  3.32633491866554E-12
(PID.TID 0000.0001)  cg2d: iter=   127 ; resid.=  2.39273734369661E-12
(PID.TID 0000.0001)  cg2d: iter=   128 ; resid.=  1.81939237690691E-12
(PID.TID 0000.0001)  cg2d: iter=   129 ; resid.=  1.34478957486184E-12
(PID.TID 0000.0001)  cg2d: iter=   130 ; resid.=  1.03163512382285E-12
(PID.TID 0000.0001)  cg2d: iter=   131 ; resid.=  8.74588053707039E-13
(PID.TID 0000.0001)  cg2d: iter=   132 ; resid.=  6.77252958462472E-13
(PID.TID 0000.0001)  cg2d: iter=   133 ; resid.=  5.05584632927182E-13
(PID.TID 0000.0001)  cg2d: iter=   134 ; resid.=  4.12032491679667E-13
(PID.TID 0000.0001)  cg2d: iter=   135 ; resid.=  3.32246884503263E-13
(PID.TID 0000.0001)  cg2d: iter=   136 ; resid.=  2.32356727978692E-13
(PID.TID 0000.0001)  cg2d: iter=   137 ; resid.=  1.79010976219047E-13
(PID.TID 0000.0001)  cg2d: iter=   138 ; resid.=  1.35954378571724E-13
(PID.TID 0000.0001)  cg2d: iter=   139 ; resid.=  1.02929102539475E-13
(PID.TID 0000.0001)  cg2d: iter=   140 ; resid.=  7.29314601340448E-14
DEBUG_STATS_RL:    cg2d_x (SOLVE_FOR_PRESSURE)  min= -2.29525954506688E+01
DEBUG_STATS_RL:    cg2d_x (SOLVE_FOR_PRESSURE)  max=  1.03851512572484E+01
DEBUG_STATS_RL:    cg2d_x (SOLVE_FOR_PRESSURE) mean= -1.77577856208965E+00
DEBUG_STATS_RL:    cg2d_x (SOLVE_FOR_PRESSURE) S.D.=  6.86385547511381E+00
(PID.TID 0000.0001)      cg2d_init_res =   9.11875948193374E-01
(PID.TID 0000.0001)      cg2d_iters(min,last) =      -1     140
(PID.TID 0000.0001)      cg2d_last_res =   7.29314601340448E-14
(PID.TID 0000.0001) // =======================================================
(PID.TID 0000.0001) // Begin MONITOR dynamic field statistics
(PID.TID 0000.0001) // =======================================================
(PID.TID 0000.0001) %MON time_tsnumber                =                    12
(PID.TID 0000.0001) %MON time_secondsf                =   1.0368000000000E+06
(PID.TID 0000.0001) %MON dynstat_eta_max              =   1.0586290782107E+00
(PID.TID 0000.0001) %MON dynstat_eta_min              =  -2.3397141132180E+00
(PID.TID 0000.0001) %MON dynstat_eta_mean             =  -8.3156805807368E-04
(PID.TID 0000.0001) %MON dynstat_eta_sd               =   5.9186889897834E-01
(PID.TID 0000.0001) %MON dynstat_eta_del2             =   1.7944302906423E-03
(PID.TID 0000.0001) %MON dynstat_uvel_max             =   1.8065761454404E-01
(PID.TID 0000.0001) %MON dynstat_uvel_min             =  -8.6326992873664E-02
(PID.TID 0000.0001) %MON dynstat_uvel_mean            =   7.4334543273858E-04
(PID.TID 0000.0001) %MON dynstat_uvel_sd              =   1.4766549375570E-02
(PID.TID 0000.0001) %MON dynstat_uvel_del2            =   9.4428352213180E-05
(PID.TID 0000.0001) %MON dynstat_vvel_max             =   1.0777656750891E-01
(PID.TID 0000.0001) %MON dynstat_vvel_min             =  -1.0527750908256E-01
(PID.TID 0000.0001) %MON dynstat_vvel_mean            =  -1.9598389971585E-04
(PID.TID 0000.0001) %MON dynstat_vvel_sd              =   9.9030776124968E-03
(PID.TID 0000.0001) %MON dynstat_vvel_del2            =   9.7051023111881E-05
(PID.TID 0000.0001) %MON dynstat_wvel_max             =   1.9539888832890E-04
(PID.TID 0000.0001) %MON dynstat_wvel_min             =  -1.9905024863884E-04
(PID.TID 0000.0001) %MON dynstat_wvel_mean            =   4.8110195747668E-23
(PID.TID 0000.0001) %MON dynstat_wvel_sd              =   2.1115774034319E-05
(PID.TID 0000.0001) %MON dynstat_wvel_del2            =   2.2868576634956E-07
(PID.TID 0000.0001) %MON dynstat_theta_max            =   2.9850913500277E+01
(PID.TID 0000.0001) %MON dynstat_theta_min            =  -1.9157101382887E+00
(PID.TID 0000.0001) %MON dynstat_theta_mean           =   3.6294955622990E+00
(PID.TID 0000.0001) %MON dynstat_theta_sd             =   4.4149123590109E+00
(PID.TID 0000.0001) %MON dynstat_theta_del2           =   4.9876956273607E-03
(PID.TID 0000.0001) %MON dynstat_salt_max             =   3.7446916176595E+01
(PID.TID 0000.0001) %MON dynstat_salt_min             =   2.9765424206576E+01
(PID.TID 0000.0001) %MON dynstat_salt_mean            =   3.4727972702637E+01
(PID.TID 0000.0001) %MON dynstat_salt_sd              =   2.9616599779144E-01
(PID.TID 0000.0001) %MON dynstat_salt_del2            =   1.0103017685067E-03
(PID.TID 0000.0001) %MON dynstat_sst_max              =   2.9850913500277E+01
(PID.TID 0000.0001) %MON dynstat_sst_min              =  -1.9157101382887E+00
(PID.TID 0000.0001) %MON dynstat_sst_mean             =   1.8636028480845E+01
(PID.TID 0000.0001) %MON dynstat_sst_sd               =   9.0693581378453E+00
(PID.TID 0000.0001) %MON dynstat_sst_del2             =   2.6147307128912E-02
(PID.TID 0000.0001) %MON dynstat_sss_max              =   3.7439923375371E+01
(PID.TID 0000.0001) %MON dynstat_sss_min              =   2.9765424206576E+01
(PID.TID 0000.0001) %MON dynstat_sss_mean             =   3.4864653587109E+01
(PID.TID 0000.0001) %MON dynstat_sss_sd               =   9.6825249834407E-01
(PID.TID 0000.0001) %MON dynstat_sss_del2             =   7.9893343472919E-03
(PID.TID 0000.0001) %MON forcing_qnet_max             =   4.3742086791992E+02
(PID.TID 0000.0001) %MON forcing_qnet_min             =  -1.8188829345703E+02
(PID.TID 0000.0001) %MON forcing_qnet_mean            =  -1.6562573824336E+01
(PID.TID 0000.0001) %MON forcing_qnet_sd              =   1.1061005498176E+02
(PID.TID 0000.0001) %MON forcing_qnet_del2            =   1.0118306891868E+00
(PID.TID 0000.0001) %MON forcing_qsw_max              =   0.0000000000000E+00
(PID.TID 0000.0001) %MON forcing_qsw_min              =   0.0000000000000E+00
(PID.TID 0000.0001) %MON forcing_qsw_mean             =   0.0000000000000E+00
(PID.TID 0000.0001) %MON forcing_qsw_sd               =   0.0000000000000E+00
(PID.TID 0000.0001) %MON forcing_qsw_del2             =   0.0000000000000E+00
(PID.TID 0000.0001) %MON forcing_empmr_max            =   8.1895939748241E-05
(PID.TID 0000.0001) %MON forcing_empmr_min            =  -7.3862861427187E-05
(PID.TID 0000.0001) %MON forcing_empmr_mean           =   8.8385803112860E-07
(PID.TID 0000.0001) %MON forcing_empmr_sd             =   2.8441005317708E-05
(PID.TID 0000.0001) %MON forcing_empmr_del2           =   3.6422974995246E-07
(PID.TID 0000.0001) %MON forcing_fu_max               =   2.7018036246300E-01
(PID.TID 0000.0001) %MON forcing_fu_min               =  -1.6762689054012E-01
(PID.TID 0000.0001) %MON forcing_fu_mean              =   1.6032506436715E-02
(PID.TID 0000.0001) %MON forcing_fu_sd                =   9.0583250401530E-02
(PID.TID 0000.0001) %MON forcing_fu_del2              =   6.9548641877095E-04
(PID.TID 0000.0001) %MON forcing_fv_max               =   2.2560169994831E-01
(PID.TID 0000.0001) %MON forcing_fv_min               =  -1.8047553002834E-01
(PID.TID 0000.0001) %MON forcing_fv_mean              =  -5.5539478469483E-03
(PID.TID 0000.0001) %MON forcing_fv_sd                =   4.7114745146942E-02
(PID.TID 0000.0001) %MON forcing_fv_del2              =   4.7455200431690E-04
(PID.TID 0000.0001) %MON trAdv_CFL_u_max              =   5.0890650651898E-02
(PID.TID 0000.0001) %MON trAdv_CFL_v_max              =   2.0403443924576E-02
(PID.TID 0000.0001) %MON trAdv_CFL_w_max              =   6.6942396576675E-02
(PID.TID 0000.0001) %MON advcfl_uvel_max              =   5.1674955880615E-02
(PID.TID 0000.0001) %MON advcfl_vvel_max              =   2.0939258538652E-02
(PID.TID 0000.0001) %MON advcfl_wvel_max              =   6.7456242284108E-02
(PID.TID 0000.0001) %MON advcfl_W_hf_max              =   7.6332063637280E-02
(PID.TID 0000.0001) %MON pe_b_mean                    =   4.4826320995793E-04
(PID.TID 0000.0001) %MON ke_max                       =   1.6189457337180E-02
(PID.TID 0000.0001) %MON ke_mean                      =   1.4336048845023E-04
(PID.TID 0000.0001) %MON ke_vol                       =   1.3226782436723E+18
(PID.TID 0000.0001) %MON vort_r_min                   =  -4.6930053864779E-07
(PID.TID 0000.0001) %MON vort_r_max                   =   3.2421125094245E-07
(PID.TID 0000.0001) %MON vort_a_mean                  =  -2.5274806532750E-05
(PID.TID 0000.0001) %MON vort_a_sd                    =   7.3604614082368E-05
(PID.TID 0000.0001) %MON vort_p_mean                  =  -3.1845654709969E-05
(PID.TID 0000.0001) %MON vort_p_sd                    =   1.3162266415439E-04
(PID.TID 0000.0001) %MON surfExpan_theta_mean         =   1.6492854314587E-06
(PID.TID 0000.0001) %MON surfExpan_salt_mean          =   1.0982594370472E-07
(PID.TID 0000.0001) // =======================================================
(PID.TID 0000.0001) // End MONITOR dynamic field statistics
(PID.TID 0000.0001) // =======================================================
 EXTERNAL_FIELDS_LOAD,        12 : iP,iLd,i0,i1=   12    1   12    1 ; Wght=  0.1000000000  0.9000000000
 EXTERNAL_FIELDS_LOAD: (fu0,1),fu,fv= -4.5368E-02 -3.5633E-02 -3.6606E-02 -5.8556E-02
 EXTERNAL_FIELDS_LOAD: SST,SSS,Q,E-P=  7.7737E-01  3.4644E+01  2.6564E+02  1.1478E-05
DEBUG_STATS_RL:          Uvel (THERMODYNAMICS)  min= -8.63269928736638E-02
DEBUG_STATS_RL:          Uvel (THERMODYNAMICS)  max=  1.80657614544038E-01
DEBUG_STATS_RL:          Uvel (THERMODYNAMICS) mean=  5.33521218735111E-03
DEBUG_STATS_RL:          Uvel (THERMODYNAMICS) S.D.=  2.33202957912004E-02
DEBUG_STATS_RL:          Vvel (THERMODYNAMICS)  min= -1.05277509082561E-01
DEBUG_STATS_RL:          Vvel (THERMODYNAMICS)  max=  1.07776567508909E-01
DEBUG_STATS_RL:          Vvel (THERMODYNAMICS) mean= -8.48384729580449E-04
DEBUG_STATS_RL:          Vvel (THERMODYNAMICS) S.D.=  1.47077282126009E-02
DEBUG_STATS_RL:          Wvel (THERMODYNAMICS)  min= -1.99050248638837E-04
DEBUG_STATS_RL:          Wvel (THERMODYNAMICS)  max=  1.95398888328898E-04
DEBUG_STATS_RL:          Wvel (THERMODYNAMICS) mean= -4.10816328928208E-07
DEBUG_STATS_RL:          Wvel (THERMODYNAMICS) S.D.=  1.87579286817251E-05
DEBUG_STATS_RL:         Theta (THERMODYNAMICS)  min= -1.94024908259206E+00
DEBUG_STATS_RL:         Theta (THERMODYNAMICS)  max=  2.98485746166353E+01
DEBUG_STATS_RL:         Theta (THERMODYNAMICS) mean=  3.21639406913554E+00
DEBUG_STATS_RL:         Theta (THERMODYNAMICS) S.D.=  5.85328312274345E+00
DEBUG_STATS_RL:          Salt (THERMODYNAMICS)  min=  9.99999999999999E-03
DEBUG_STATS_RL:          Salt (THERMODYNAMICS)  max=  3.74471558264312E+01
DEBUG_STATS_RL:          Salt (THERMODYNAMICS) mean=  1.88551789675661E+01
DEBUG_STATS_RL:          Salt (THERMODYNAMICS) S.D.=  1.73006558318901E+01
DEBUG_STATS_RL:         GtNm1 (THERMODYNAMICS)  min= -5.52276879314201E-06
DEBUG_STATS_RL:         GtNm1 (THERMODYNAMICS)  max=  4.87951021317239E-06
DEBUG_STATS_RL:         GtNm1 (THERMODYNAMICS) mean=  1.83874544104109E-08
DEBUG_STATS_RL:         GtNm1 (THERMODYNAMICS) S.D.=  2.62930454705884E-07
DEBUG_STATS_RL:         GsNm1 (THERMODYNAMICS)  min= -1.29486909317693E-06
DEBUG_STATS_RL:         GsNm1 (THERMODYNAMICS)  max=  1.38485618485690E-06
DEBUG_STATS_RL:         GsNm1 (THERMODYNAMICS) mean=  1.15365525828678E-10
DEBUG_STATS_RL:         GsNm1 (THERMODYNAMICS) S.D.=  2.43155171691698E-08
DEBUG_STATS_RL:                EtaN (DYNAMICS)  min= -2.33971411321804E+00
DEBUG_STATS_RL:                EtaN (DYNAMICS)  max=  1.05862907821073E+00
DEBUG_STATS_RL:                EtaN (DYNAMICS) mean= -1.81017182679882E-01
DEBUG_STATS_RL:                EtaN (DYNAMICS) S.D.=  6.99679457198145E-01
DEBUG_STATS_RL:                Uvel (DYNAMICS)  min= -8.63269928736638E-02
DEBUG_STATS_RL:                Uvel (DYNAMICS)  max=  1.80657614544038E-01
DEBUG_STATS_RL:                Uvel (DYNAMICS) mean=  5.33521218735111E-03
DEBUG_STATS_RL:                Uvel (DYNAMICS) S.D.=  2.33202957912004E-02
DEBUG_STATS_RL:                Vvel (DYNAMICS)  min= -1.05277509082561E-01
DEBUG_STATS_RL:                Vvel (DYNAMICS)  max=  1.07776567508909E-01
DEBUG_STATS_RL:                Vvel (DYNAMICS) mean= -8.48384729580449E-04
DEBUG_STATS_RL:                Vvel (DYNAMICS) S.D.=  1.47077282126009E-02
DEBUG_STATS_RL:                Wvel (DYNAMICS)  min= -1.99050248638837E-04
DEBUG_STATS_RL:                Wvel (DYNAMICS)  max=  1.95398888328898E-04
DEBUG_STATS_RL:                Wvel (DYNAMICS) mean= -4.10816328928208E-07
DEBUG_STATS_RL:                Wvel (DYNAMICS) S.D.=  1.87579286817251E-05
DEBUG_STATS_RL:               Theta (DYNAMICS)  min= -1.94024908259206E+00
DEBUG_STATS_RL:               Theta (DYNAMICS)  max=  2.98485746166353E+01
DEBUG_STATS_RL:               Theta (DYNAMICS) mean=  3.21639406913554E+00
DEBUG_STATS_RL:               Theta (DYNAMICS) S.D.=  5.85328312274345E+00
DEBUG_STATS_RL:                Salt (DYNAMICS)  min=  9.99999999999999E-03
DEBUG_STATS_RL:                Salt (DYNAMICS)  max=  3.74471558264312E+01
DEBUG_STATS_RL:                Salt (DYNAMICS) mean=  1.88551789675661E+01
DEBUG_STATS_RL:                Salt (DYNAMICS) S.D.=  1.73006558318901E+01
DEBUG_STATS_RL:                  Gu (DYNAMICS)  min= -8.79854080048660E-02
DEBUG_STATS_RL:                  Gu (DYNAMICS)  max=  1.83713185553468E-01
DEBUG_STATS_RL:                  Gu (DYNAMICS) mean=  4.49999476000685E-03
DEBUG_STATS_RL:                  Gu (DYNAMICS) S.D.=  2.42429658459915E-02
DEBUG_STATS_RL:                  Gv (DYNAMICS)  min= -1.03637380760226E-01
DEBUG_STATS_RL:                  Gv (DYNAMICS)  max=  1.04325676017611E-01
DEBUG_STATS_RL:                  Gv (DYNAMICS) mean=  1.00498687119465E-03
DEBUG_STATS_RL:                  Gv (DYNAMICS) S.D.=  1.45106026780928E-02
DEBUG_STATS_RL:               GuNm1 (DYNAMICS)  min= -6.21009232016798E-06
DEBUG_STATS_RL:               GuNm1 (DYNAMICS)  max=  7.26478667159668E-06
DEBUG_STATS_RL:               GuNm1 (DYNAMICS) mean= -2.68465740948895E-08
DEBUG_STATS_RL:               GuNm1 (DYNAMICS) S.D.=  1.10851413734992E-06
DEBUG_STATS_RL:               GvNm1 (DYNAMICS)  min= -8.76248669739841E-06
DEBUG_STATS_RL:               GvNm1 (DYNAMICS)  max=  1.66671091554834E-05
DEBUG_STATS_RL:               GvNm1 (DYNAMICS) mean=  7.72978126935417E-07
DEBUG_STATS_RL:               GvNm1 (DYNAMICS) S.D.=  2.59386512806526E-06
DEBUG_STATS_RL:               GtNm1 (DYNAMICS)  min= -5.52276879314201E-06
DEBUG_STATS_RL:               GtNm1 (DYNAMICS)  max=  4.87951021317239E-06
DEBUG_STATS_RL:               GtNm1 (DYNAMICS) mean=  1.83874544104109E-08
DEBUG_STATS_RL:               GtNm1 (DYNAMICS) S.D.=  2.62930454705884E-07
DEBUG_STATS_RL:               GsNm1 (DYNAMICS)  min= -1.29486909317693E-06
DEBUG_STATS_RL:               GsNm1 (DYNAMICS)  max=  1.38485618485690E-06
DEBUG_STATS_RL:               GsNm1 (DYNAMICS) mean=  1.15365525828678E-10
DEBUG_STATS_RL:               GsNm1 (DYNAMICS) S.D.=  2.43155171691698E-08
DEBUG_STATS_RL:    cg2d_b (SOLVE_FOR_PRESSURE)  min= -1.62178075592662E+04
DEBUG_STATS_RL:    cg2d_b (SOLVE_FOR_PRESSURE)  max=  1.35256537514507E+04
DEBUG_STATS_RL:    cg2d_b (SOLVE_FOR_PRESSURE) mean=  8.68494721173048E-01
DEBUG_STATS_RL:    cg2d_b (SOLVE_FOR_PRESSURE) S.D.=  3.22329347985620E+03
 cg2d: Sum(rhs),rhsMax =   1.23972693113230E-01  1.06522902246755E+00
(PID.TID 0000.0001)  cg2d: iter=     1 ; resid.=  4.15705685723289E-01
(PID.TID 0000.0001)  cg2d: iter=     2 ; resid.=  3.38540922074158E-01
(PID.TID 0000.0001)  cg2d: iter=     3 ; resid.=  3.08822236104134E-01
(PID.TID 0000.0001)  cg2d: iter=     4 ; resid.=  2.48461641174969E-01
(PID.TID 0000.0001)  cg2d: iter=     5 ; resid.=  2.44961037167096E-01
(PID.TID 0000.0001)  cg2d: iter=     6 ; resid.=  1.87499119314147E-01
(PID.TID 0000.0001)  cg2d: iter=     7 ; resid.=  1.97882059467516E-01
(PID.TID 0000.0001)  cg2d: iter=     8 ; resid.=  1.36728817451061E-01
(PID.TID 0000.0001)  cg2d: iter=     9 ; resid.=  9.11897660374197E-02
(PID.TID 0000.0001)  cg2d: iter=    10 ; resid.=  8.03456957480336E-02
(PID.TID 0000.0001)  cg2d: iter=    11 ; resid.=  7.74986698092557E-02
(PID.TID 0000.0001)  cg2d: iter=    12 ; resid.=  6.11172279421834E-02
(PID.TID 0000.0001)  cg2d: iter=    13 ; resid.=  5.00038671047434E-02
(PID.TID 0000.0001)  cg2d: iter=    14 ; resid.=  4.54191970141879E-02
(PID.TID 0000.0001)  cg2d: iter=    15 ; resid.=  3.74170837145706E-02
(PID.TID 0000.0001)  cg2d: iter=    16 ; resid.=  3.21563999356165E-02
(PID.TID 0000.0001)  cg2d: iter=    17 ; resid.=  3.10316515557516E-02
(PID.TID 0000.0001)  cg2d: iter=    18 ; resid.=  2.51418583415502E-02
(PID.TID 0000.0001)  cg2d: iter=    19 ; resid.=  1.98517291107874E-02
(PID.TID 0000.0001)  cg2d: iter=    20 ; resid.=  1.54059437648013E-02
(PID.TID 0000.0001)  cg2d: iter=    21 ; resid.=  1.23614353604195E-02
(PID.TID 0000.0001)  cg2d: iter=    22 ; resid.=  1.04675429832459E-02
(PID.TID 0000.0001)  cg2d: iter=    23 ; resid.=  8.15459609111375E-03
(PID.TID 0000.0001)  cg2d: iter=    24 ; resid.=  7.66851259988084E-03
(PID.TID 0000.0001)  cg2d: iter=    25 ; resid.=  6.17823548798749E-03
(PID.TID 0000.0001)  cg2d: iter=    26 ; resid.=  5.28243351990262E-03
(PID.TID 0000.0001)  cg2d: iter=    27 ; resid.=  4.65920014240967E-03
(PID.TID 0000.0001)  cg2d: iter=    28 ; resid.=  4.17503650491157E-03
(PID.TID 0000.0001)  cg2d: iter=    29 ; resid.=  3.30400169465899E-03
(PID.TID 0000.0001)  cg2d: iter=    30 ; resid.=  3.08002998943001E-03
(PID.TID 0000.0001)  cg2d: iter=    31 ; resid.=  2.50856191200229E-03
(PID.TID 0000.0001)  cg2d: iter=    32 ; resid.=  1.86834085793012E-03
(PID.TID 0000.0001)  cg2d: iter=    33 ; resid.=  1.64015995034627E-03
(PID.TID 0000.0001)  cg2d: iter=    34 ; resid.=  1.44364998244132E-03
(PID.TID 0000.0001)  cg2d: iter=    35 ; resid.=  1.08395784108747E-03
(PID.TID 0000.0001)  cg2d: iter=    36 ; resid.=  8.78022123459055E-04
(PID.TID 0000.0001)  cg2d: iter=    37 ; resid.=  7.32626821629653E-04
(PID.TID 0000.0001)  cg2d: iter=    38 ; resid.=  5.93606954111923E-04
(PID.TID 0000.0001)  cg2d: iter=    39 ; resid.=  4.78551628579581E-04
(PID.TID 0000.0001)  cg2d: iter=    40 ; resid.=  4.29105044135989E-04
(PID.TID 0000.0001)  cg2d: iter=    41 ; resid.=  3.53439852772537E-04
(PID.TID 0000.0001)  cg2d: iter=    42 ; resid.=  3.01578082621330E-04
(PID.TID 0000.0001)  cg2d: iter=    43 ; resid.=  2.39062804275936E-04
(PID.TID 0000.0001)  cg2d: iter=    44 ; resid.=  1.83918198651480E-04
(PID.TID 0000.0001)  cg2d: iter=    45 ; resid.=  1.72894815149541E-04
(PID.TID 0000.0001)  cg2d: iter=    46 ; resid.=  1.48403801693585E-04
(PID.TID 0000.0001)  cg2d: iter=    47 ; resid.=  1.21110460120578E-04
(PID.TID 0000.0001)  cg2d: iter=    48 ; resid.=  1.06625228748676E-04
(PID.TID 0000.0001)  cg2d: iter=    49 ; resid.=  9.27271750625745E-05
(PID.TID 0000.0001)  cg2d: iter=    50 ; resid.=  8.76071158312561E-05
(PID.TID 0000.0001)  cg2d: iter=    51 ; resid.=  7.97161804344722E-05
(PID.TID 0000.0001)  cg2d: iter=    52 ; resid.=  6.80908397343488E-05
(PID.TID 0000.0001)  cg2d: iter=    53 ; resid.=  5.51327873650264E-05
(PID.TID 0000.0001)  cg2d: iter=    54 ; resid.=  4.23822150908091E-05
(PID.TID 0000.0001)  cg2d: iter=    55 ; resid.=  3.47165087105945E-05
(PID.TID 0000.0001)  cg2d: iter=    56 ; resid.=  2.62251103932187E-05
(PID.TID 0000.0001)  cg2d: iter=    57 ; resid.=  1.96853814441100E-05
(PID.TID 0000.0001)  cg2d: iter=    58 ; resid.=  1.39748723408274E-05
(PID.TID 0000.0001)  cg2d: iter=    59 ; resid.=  1.03018989623216E-05
(PID.TID 0000.0001)  cg2d: iter=    60 ; resid.=  8.06143855159431E-06
(PID.TID 0000.0001)  cg2d: iter=    61 ; resid.=  6.19269652604158E-06
(PID.TID 0000.0001)  cg2d: iter=    62 ; resid.=  4.36368020988149E-06
(PID.TID 0000.0001)  cg2d: iter=    63 ; resid.=  3.43255835666959E-06
(PID.TID 0000.0001)  cg2d: iter=    64 ; resid.=  3.33965743020866E-06
(PID.TID 0000.0001)  cg2d: iter=    65 ; resid.=  2.63436570166085E-06
(PID.TID 0000.0001)  cg2d: iter=    66 ; resid.=  2.14045393584131E-06
(PID.TID 0000.0001)  cg2d: iter=    67 ; resid.=  1.87420273141837E-06
(PID.TID 0000.0001)  cg2d: iter=    68 ; resid.=  1.56392115433395E-06
(PID.TID 0000.0001)  cg2d: iter=    69 ; resid.=  1.15975268505292E-06
(PID.TID 0000.0001)  cg2d: iter=    70 ; resid.=  9.12297161759935E-07
(PID.TID 0000.0001)  cg2d: iter=    71 ; resid.=  7.10699669477625E-07
(PID.TID 0000.0001)  cg2d: iter=    72 ; resid.=  5.75093737858669E-07
(PID.TID 0000.0001)  cg2d: iter=    73 ; resid.=  4.87762134035368E-07
(PID.TID 0000.0001)  cg2d: iter=    74 ; resid.=  4.08974645564697E-07
(PID.TID 0000.0001)  cg2d: iter=    75 ; resid.=  3.14829159383038E-07
(PID.TID 0000.0001)  cg2d: iter=    76 ; resid.=  2.74131170089685E-07
(PID.TID 0000.0001)  cg2d: iter=    77 ; resid.=  2.08501113964049E-07
(PID.TID 0000.0001)  cg2d: iter=    78 ; resid.=  1.51614696688441E-07
(PID.TID 0000.0001)  cg2d: iter=    79 ; resid.=  1.29782743764379E-07
(PID.TID 0000.0001)  cg2d: iter=    80 ; resid.=  1.07934329377360E-07
(PID.TID 0000.0001)  cg2d: iter=    81 ; resid.=  8.30760727599572E-08
(PID.TID 0000.0001)  cg2d: iter=    82 ; resid.=  6.20824203364678E-08
(PID.TID 0000.0001)  cg2d: iter=    83 ; resid.=  5.09110528342959E-08
(PID.TID 0000.0001)  cg2d: iter=    84 ; resid.=  4.02278781178868E-08
(PID.TID 0000.0001)  cg2d: iter=    85 ; resid.=  3.27798253023961E-08
(PID.TID 0000.0001)  cg2d: iter=    86 ; resid.=  2.64370374356427E-08
(PID.TID 0000.0001)  cg2d: iter=    87 ; resid.=  1.97142964149871E-08
(PID.TID 0000.0001)  cg2d: iter=    88 ; resid.=  1.53434401653829E-08
(PID.TID 0000.0001)  cg2d: iter=    89 ; resid.=  1.25876242925473E-08
(PID.TID 0000.0001)  cg2d: iter=    90 ; resid.=  9.66364592426316E-09
(PID.TID 0000.0001)  cg2d: iter=    91 ; resid.=  8.33652629935076E-09
(PID.TID 0000.0001)  cg2d: iter=    92 ; resid.=  6.99763151895965E-09
(PID.TID 0000.0001)  cg2d: iter=    93 ; resid.=  5.90439207676490E-09
(PID.TID 0000.0001)  cg2d: iter=    94 ; resid.=  4.97072400336375E-09
(PID.TID 0000.0001)  cg2d: iter=    95 ; resid.=  4.19067469371204E-09
(PID.TID 0000.0001)  cg2d: iter=    96 ; resid.=  3.15434888467497E-09
(PID.TID 0000.0001)  cg2d: iter=    97 ; resid.=  2.26908804250727E-09
(PID.TID 0000.0001)  cg2d: iter=    98 ; resid.=  1.80923954381344E-09
(PID.TID 0000.0001)  cg2d: iter=    99 ; resid.=  1.54440134673251E-09
(PID.TID 0000.0001)  cg2d: iter=   100 ; resid.=  1.26012114544616E-09
(PID.TID 0000.0001)  cg2d: iter=   101 ; resid.=  9.16397666629259E-10
(PID.TID 0000.0001)  cg2d: iter=   102 ; resid.=  7.45831792238534E-10
(PID.TID 0000.0001)  cg2d: iter=   103 ; resid.=  6.39542869990550E-10
(PID.TID 0000.0001)  cg2d: iter=   104 ; resid.=  5.75378895457621E-10
(PID.TID 0000.0001)  cg2d: iter=   105 ; resid.=  4.82530375493432E-10
(PID.TID 0000.0001)  cg2d: iter=   106 ; resid.=  4.20663850526495E-10
(PID.TID 0000.0001)  cg2d: iter=   107 ; resid.=  3.67874540589862E-10
(PID.TID 0000.0001)  cg2d: iter=   108 ; resid.=  2.96424184329582E-10
(PID.TID 0000.0001)  cg2d: iter=   109 ; resid.=  2.52246717684781E-10
(PID.TID 0000.0001)  cg2d: iter=   110 ; resid.=  2.18484117800619E-10
(PID.TID 0000.0001)  cg2d: iter=   111 ; resid.=  1.82749119078840E-10
(PID.TID 0000.0001)  cg2d: iter=   112 ; resid.=  1.39328687844029E-10
(PID.TID 0000.0001)  cg2d: iter=   113 ; resid.=  1.09179662090627E-10
(PID.TID 0000.0001)  cg2d: iter=   114 ; resid.=  8.46318385345890E-11
(PID.TID 0000.0001)  cg2d: iter=   115 ; resid.=  6.30021185986816E-11
(PID.TID 0000.0001)  cg2d: iter=   116 ; resid.=  4.79153829346315E-11
(PID.TID 0000.0001)  cg2d: iter=   117 ; resid.=  3.84573595666773E-11
(PID.TID 0000.0001)  cg2d: iter=   118 ; resid.=  3.06300719211760E-11
(PID.TID 0000.0001)  cg2d: iter=   119 ; resid.=  2.39923458314163E-11
(PID.TID 0000.0001)  cg2d: iter=   120 ; resid.=  1.80862257220749E-11
(PID.TID 0000.0001)  cg2d: iter=   121 ; resid.=  1.45826068173686E-11
(PID.TID 0000.0001)  cg2d: iter=   122 ; resid.=  1.16819033656079E-11
(PID.TID 0000.0001)  cg2d: iter=   123 ; resid.=  8.63288612028601E-12
(PID.TID 0000.0001)  cg2d: iter=   124 ; resid.=  6.03608349225839E-12
(PID.TID 0000.0001)  cg2d: iter=   125 ; resid.=  4.04363421239331E-12
(PID.TID 0000.0001)  cg2d: iter=   126 ; resid.=  2.95129292656217E-12
(PID.TID 0000.0001)  cg2d: iter=   127 ; resid.=  2.08829636360172E-12
(PID.TID 0000.0001)  cg2d: iter=   128 ; resid.=  1.56197553989931E-12
(PID.TID 0000.0001)  cg2d: iter=   129 ; resid.=  1.11742768514046E-12
(PID.TID 0000.0001)  cg2d: iter=   130 ; resid.=  8.66000968309308E-13
(PID.TID 0000.0001)  cg2d: iter=   131 ; resid.=  7.32982592092887E-13
(PID.TID 0000.0001)  cg2d: iter=   132 ; resid.=  5.77571708010639E-13
(PID.TID 0000.0001)  cg2d: iter=   133 ; resid.=  4.24918069876914E-13
(PID.TID 0000.0001)  cg2d: iter=   134 ; resid.=  3.32271421957535E-13
(PID.TID 0000.0001)  cg2d: iter=   135 ; resid.=  2.63774454270455E-13
(PID.TID 0000.0001)  cg2d: iter=   136 ; resid.=  1.81432221734367E-13
(PID.TID 0000.0001)  cg2d: iter=   137 ; resid.=  1.38538637329125E-13
(PID.TID 0000.0001)  cg2d: iter=   138 ; resid.=  1.04987864465215E-13
(PID.TID 0000.0001)  cg2d: iter=   139 ; resid.=  7.78917185937863E-14
DEBUG_STATS_RL:    cg2d_x (SOLVE_FOR_PRESSURE)  min= -2.41661585231203E+01
DEBUG_STATS_RL:    cg2d_x (SOLVE_FOR_PRESSURE)  max=  9.35256421567116E+00
DEBUG_STATS_RL:    cg2d_x (SOLVE_FOR_PRESSURE) mean= -1.78495689802521E+00
DEBUG_STATS_RL:    cg2d_x (SOLVE_FOR_PRESSURE) S.D.=  6.87801873286768E+00
(PID.TID 0000.0001)      cg2d_init_res =   8.23997649640763E-01
(PID.TID 0000.0001)      cg2d_iters(min,last) =      -1     139
(PID.TID 0000.0001)      cg2d_last_res =   7.78917185937863E-14
(PID.TID 0000.0001) // =======================================================
(PID.TID 0000.0001) // Begin MONITOR dynamic field statistics
(PID.TID 0000.0001) // =======================================================
(PID.TID 0000.0001) %MON time_tsnumber                =                    13
(PID.TID 0000.0001) %MON time_secondsf                =   1.1232000000000E+06
(PID.TID 0000.0001) %MON dynstat_eta_max              =   9.5337046031323E-01
(PID.TID 0000.0001) %MON dynstat_eta_min              =  -2.4634208484321E+00
(PID.TID 0000.0001) %MON dynstat_eta_mean             =  -9.0616655175364E-04
(PID.TID 0000.0001) %MON dynstat_eta_sd               =   5.8898489669637E-01
(PID.TID 0000.0001) %MON dynstat_eta_del2             =   1.7552219320678E-03
(PID.TID 0000.0001) %MON dynstat_uvel_max             =   1.8486355922214E-01
(PID.TID 0000.0001) %MON dynstat_uvel_min             =  -9.1131662042986E-02
(PID.TID 0000.0001) %MON dynstat_uvel_mean            =   2.6100467463169E-04
(PID.TID 0000.0001) %MON dynstat_uvel_sd              =   1.5440725192775E-02
(PID.TID 0000.0001) %MON dynstat_uvel_del2            =   9.6371873658630E-05
(PID.TID 0000.0001) %MON dynstat_vvel_max             =   1.1302362264842E-01
(PID.TID 0000.0001) %MON dynstat_vvel_min             =  -1.0964557213533E-01
(PID.TID 0000.0001) %MON dynstat_vvel_mean            =  -2.2998177634394E-04
(PID.TID 0000.0001) %MON dynstat_vvel_sd              =   9.5791681651284E-03
(PID.TID 0000.0001) %MON dynstat_vvel_del2            =   9.3203013336310E-05
(PID.TID 0000.0001) %MON dynstat_wvel_max             =   1.7819217798968E-04
(PID.TID 0000.0001) %MON dynstat_wvel_min             =  -1.8881961149466E-04
(PID.TID 0000.0001) %MON dynstat_wvel_mean            =   4.7685862674327E-23
(PID.TID 0000.0001) %MON dynstat_wvel_sd              =   2.0272239540534E-05
(PID.TID 0000.0001) %MON dynstat_wvel_del2            =   2.1663970923431E-07
(PID.TID 0000.0001) %MON dynstat_theta_max            =   2.9848574616635E+01
(PID.TID 0000.0001) %MON dynstat_theta_min            =  -1.9402490825921E+00
(PID.TID 0000.0001) %MON dynstat_theta_mean           =   3.6295713591441E+00
(PID.TID 0000.0001) %MON dynstat_theta_sd             =   4.4149745219607E+00
(PID.TID 0000.0001) %MON dynstat_theta_del2           =   4.9556597699826E-03
(PID.TID 0000.0001) %MON dynstat_salt_max             =   3.7447155826431E+01
(PID.TID 0000.0001) %MON dynstat_salt_min             =   2.9760603310042E+01
(PID.TID 0000.0001) %MON dynstat_salt_mean            =   3.4727971804333E+01
(PID.TID 0000.0001) %MON dynstat_salt_sd              =   2.9617919802886E-01
(PID.TID 0000.0001) %MON dynstat_salt_del2            =   1.0108570351085E-03
(PID.TID 0000.0001) %MON dynstat_sst_max              =   2.9848574616635E+01
(PID.TID 0000.0001) %MON dynstat_sst_min              =  -1.9402490825921E+00
(PID.TID 0000.0001) %MON dynstat_sst_mean             =   1.8646974937222E+01
(PID.TID 0000.0001) %MON dynstat_sst_sd               =   9.0642146645219E+00
(PID.TID 0000.0001) %MON dynstat_sst_del2             =   2.6169055652249E-02
(PID.TID 0000.0001) %MON dynstat_sss_max              =   3.7439633266530E+01
(PID.TID 0000.0001) %MON dynstat_sss_min              =   2.9760603310042E+01
(PID.TID 0000.0001) %MON dynstat_sss_mean             =   3.4864846994744E+01
(PID.TID 0000.0001) %MON dynstat_sss_sd               =   9.6875294197046E-01
(PID.TID 0000.0001) %MON dynstat_sss_del2             =   7.9909615537441E-03
(PID.TID 0000.0001) %MON forcing_qnet_max             =   4.3846905517578E+02
(PID.TID 0000.0001) %MON forcing_qnet_min             =  -1.8174754943848E+02
(PID.TID 0000.0001) %MON forcing_qnet_mean            =  -1.6550061868513E+01
(PID.TID 0000.0001) %MON forcing_qnet_sd              =   1.1042168913970E+02
(PID.TID 0000.0001) %MON forcing_qnet_del2            =   1.0147687802669E+00
(PID.TID 0000.0001) %MON forcing_qsw_max              =   0.0000000000000E+00
(PID.TID 0000.0001) %MON forcing_qsw_min              =   0.0000000000000E+00
(PID.TID 0000.0001) %MON forcing_qsw_mean             =   0.0000000000000E+00
(PID.TID 0000.0001) %MON forcing_qsw_sd               =   0.0000000000000E+00
(PID.TID 0000.0001) %MON forcing_qsw_del2             =   0.0000000000000E+00
(PID.TID 0000.0001) %MON forcing_empmr_max            =   8.1897606207804E-05
(PID.TID 0000.0001) %MON forcing_empmr_min            =  -7.4245208736556E-05
(PID.TID 0000.0001) %MON forcing_empmr_mean           =   8.9362778887410E-07
(PID.TID 0000.0001) %MON forcing_empmr_sd             =   2.8524757575518E-05
(PID.TID 0000.0001) %MON forcing_empmr_del2           =   3.6489898148972E-07
(PID.TID 0000.0001) %MON forcing_fu_max               =   2.7026165127754E-01
(PID.TID 0000.0001) %MON forcing_fu_min               =  -1.6844031065702E-01
(PID.TID 0000.0001) %MON forcing_fu_mean              =   1.6024813615678E-02
(PID.TID 0000.0001) %MON forcing_fu_sd                =   9.0687065718989E-02
(PID.TID 0000.0001) %MON forcing_fu_del2              =   7.0218537639472E-04
(PID.TID 0000.0001) %MON forcing_fv_max               =   2.2748160511255E-01
(PID.TID 0000.0001) %MON forcing_fv_min               =  -1.7989087253809E-01
(PID.TID 0000.0001) %MON forcing_fv_mean              =  -5.4801853200875E-03
(PID.TID 0000.0001) %MON forcing_fv_sd                =   4.7378348929193E-02
(PID.TID 0000.0001) %MON forcing_fv_del2              =   4.8014067006239E-04
(PID.TID 0000.0001) %MON trAdv_CFL_u_max              =   5.1685451433740E-02
(PID.TID 0000.0001) %MON trAdv_CFL_v_max              =   2.1112991557909E-02
(PID.TID 0000.0001) %MON trAdv_CFL_w_max              =   6.2477843641103E-02
(PID.TID 0000.0001) %MON advcfl_uvel_max              =   5.2094215747806E-02
(PID.TID 0000.0001) %MON advcfl_vvel_max              =   2.1958677199613E-02
(PID.TID 0000.0001) %MON advcfl_wvel_max              =   6.2282122593454E-02
(PID.TID 0000.0001) %MON advcfl_W_hf_max              =   7.0477138724172E-02
(PID.TID 0000.0001) %MON pe_b_mean                    =   4.4390551929292E-04
(PID.TID 0000.0001) %MON ke_max                       =   1.6654592808575E-02
(PID.TID 0000.0001) %MON ke_mean                      =   1.4956598338272E-04
(PID.TID 0000.0001) %MON ke_vol                       =   1.3226782436723E+18
(PID.TID 0000.0001) %MON vort_r_min                   =  -4.2804401326684E-07
(PID.TID 0000.0001) %MON vort_r_max                   =   3.4012652608520E-07
(PID.TID 0000.0001) %MON vort_a_mean                  =  -2.5274806710023E-05
(PID.TID 0000.0001) %MON vort_a_sd                    =   7.3604515645895E-05
(PID.TID 0000.0001) %MON vort_p_mean                  =  -3.1845654933329E-05
(PID.TID 0000.0001) %MON vort_p_sd                    =   1.3162241741338E-04
(PID.TID 0000.0001) %MON surfExpan_theta_mean         =   4.5056026224507E-07
(PID.TID 0000.0001) %MON surfExpan_salt_mean          =   7.2937940850092E-08
(PID.TID 0000.0001) // =======================================================
(PID.TID 0000.0001) // End MONITOR dynamic field statistics
(PID.TID 0000.0001) // =======================================================
 EXTERNAL_FIELDS_LOAD,        13 : iP,iLd,i0,i1=   12    1   12    1 ; Wght=  0.0666666667  0.9333333333
 EXTERNAL_FIELDS_LOAD: (fu0,1),fu,fv= -4.5368E-02 -3.5633E-02 -3.6282E-02 -5.8123E-02
 EXTERNAL_FIELDS_LOAD: SST,SSS,Q,E-P=  8.3772E-01  3.4668E+01  2.6568E+02  1.1531E-05
DEBUG_STATS_RL:          Uvel (THERMODYNAMICS)  min= -9.11316620429860E-02
DEBUG_STATS_RL:          Uvel (THERMODYNAMICS)  max=  1.84863559222141E-01
DEBUG_STATS_RL:          Uvel (THERMODYNAMICS) mean=  5.01461432911308E-03
DEBUG_STATS_RL:          Uvel (THERMODYNAMICS) S.D.=  2.41293522189134E-02
DEBUG_STATS_RL:          Vvel (THERMODYNAMICS)  min= -1.09645572135335E-01
DEBUG_STATS_RL:          Vvel (THERMODYNAMICS)  max=  1.13023622648424E-01
DEBUG_STATS_RL:          Vvel (THERMODYNAMICS) mean= -4.86356205236522E-04
DEBUG_STATS_RL:          Vvel (THERMODYNAMICS) S.D.=  1.43994539512143E-02
DEBUG_STATS_RL:          Wvel (THERMODYNAMICS)  min= -1.88819611494659E-04
DEBUG_STATS_RL:          Wvel (THERMODYNAMICS)  max=  1.78192177989682E-04
DEBUG_STATS_RL:          Wvel (THERMODYNAMICS) mean= -2.59746790621952E-07
DEBUG_STATS_RL:          Wvel (THERMODYNAMICS) S.D.=  1.78145422732699E-05
DEBUG_STATS_RL:         Theta (THERMODYNAMICS)  min= -2.00553726645981E+00
DEBUG_STATS_RL:         Theta (THERMODYNAMICS)  max=  2.98456671890020E+01
DEBUG_STATS_RL:         Theta (THERMODYNAMICS) mean=  3.21708711195659E+00
DEBUG_STATS_RL:         Theta (THERMODYNAMICS) S.D.=  5.85403862487742E+00
DEBUG_STATS_RL:          Salt (THERMODYNAMICS)  min=  9.99999999999999E-03
DEBUG_STATS_RL:          Salt (THERMODYNAMICS)  max=  3.74474895843681E+01
DEBUG_STATS_RL:          Salt (THERMODYNAMICS) mean=  1.88551881548736E+01
DEBUG_STATS_RL:          Salt (THERMODYNAMICS) S.D.=  1.73006656992988E+01
DEBUG_STATS_RL:         GtNm1 (THERMODYNAMICS)  min= -6.89699781161865E-06
DEBUG_STATS_RL:         GtNm1 (THERMODYNAMICS)  max=  5.82884354044645E-06
DEBUG_STATS_RL:         GtNm1 (THERMODYNAMICS) mean=  1.68800273667827E-08
DEBUG_STATS_RL:         GtNm1 (THERMODYNAMICS) S.D.=  2.63126008024901E-07
DEBUG_STATS_RL:         GsNm1 (THERMODYNAMICS)  min= -1.69524349931108E-06
DEBUG_STATS_RL:         GsNm1 (THERMODYNAMICS)  max=  1.66453811994304E-06
DEBUG_STATS_RL:         GsNm1 (THERMODYNAMICS) mean=  1.53104084954730E-10
DEBUG_STATS_RL:         GsNm1 (THERMODYNAMICS) S.D.=  2.67798184562539E-08
DEBUG_STATS_RL:                EtaN (DYNAMICS)  min= -2.46342084843210E+00
DEBUG_STATS_RL:                EtaN (DYNAMICS)  max=  9.53370460313225E-01
DEBUG_STATS_RL:                EtaN (DYNAMICS) mean= -1.81952792866993E-01
DEBUG_STATS_RL:                EtaN (DYNAMICS) S.D.=  7.01123214359601E-01
DEBUG_STATS_RL:                Uvel (DYNAMICS)  min= -9.11316620429860E-02
DEBUG_STATS_RL:                Uvel (DYNAMICS)  max=  1.84863559222141E-01
DEBUG_STATS_RL:                Uvel (DYNAMICS) mean=  5.01461432911308E-03
DEBUG_STATS_RL:                Uvel (DYNAMICS) S.D.=  2.41293522189134E-02
DEBUG_STATS_RL:                Vvel (DYNAMICS)  min= -1.09645572135335E-01
DEBUG_STATS_RL:                Vvel (DYNAMICS)  max=  1.13023622648424E-01
DEBUG_STATS_RL:                Vvel (DYNAMICS) mean= -4.86356205236522E-04
DEBUG_STATS_RL:                Vvel (DYNAMICS) S.D.=  1.43994539512143E-02
DEBUG_STATS_RL:                Wvel (DYNAMICS)  min= -1.88819611494659E-04
DEBUG_STATS_RL:                Wvel (DYNAMICS)  max=  1.78192177989682E-04
DEBUG_STATS_RL:                Wvel (DYNAMICS) mean= -2.59746790621952E-07
DEBUG_STATS_RL:                Wvel (DYNAMICS) S.D.=  1.78145422732699E-05
DEBUG_STATS_RL:               Theta (DYNAMICS)  min= -2.00553726645981E+00
DEBUG_STATS_RL:               Theta (DYNAMICS)  max=  2.98456671890020E+01
DEBUG_STATS_RL:               Theta (DYNAMICS) mean=  3.21708711195659E+00
DEBUG_STATS_RL:               Theta (DYNAMICS) S.D.=  5.85403862487742E+00
DEBUG_STATS_RL:                Salt (DYNAMICS)  min=  9.99999999999999E-03
DEBUG_STATS_RL:                Salt (DYNAMICS)  max=  3.74474895843681E+01
DEBUG_STATS_RL:                Salt (DYNAMICS) mean=  1.88551881548736E+01
DEBUG_STATS_RL:                Salt (DYNAMICS) S.D.=  1.73006656992988E+01
DEBUG_STATS_RL:                  Gu (DYNAMICS)  min= -9.40391615699285E-02
DEBUG_STATS_RL:                  Gu (DYNAMICS)  max=  1.84730011828169E-01
DEBUG_STATS_RL:                  Gu (DYNAMICS) mean=  4.21396280726577E-03
DEBUG_STATS_RL:                  Gu (DYNAMICS) S.D.=  2.47816022992174E-02
DEBUG_STATS_RL:                  Gv (DYNAMICS)  min= -1.07632876727413E-01
DEBUG_STATS_RL:                  Gv (DYNAMICS)  max=  1.09305956030295E-01
DEBUG_STATS_RL:                  Gv (DYNAMICS) mean=  1.41567274352100E-03
DEBUG_STATS_RL:                  Gv (DYNAMICS) S.D.=  1.46894954064945E-02
DEBUG_STATS_RL:               GuNm1 (DYNAMICS)  min= -6.29710672908413E-06
DEBUG_STATS_RL:               GuNm1 (DYNAMICS)  max=  7.29835527163839E-06
DEBUG_STATS_RL:               GuNm1 (DYNAMICS) mean= -2.48664822763821E-08
DEBUG_STATS_RL:               GuNm1 (DYNAMICS) S.D.=  1.10252341942273E-06
DEBUG_STATS_RL:               GvNm1 (DYNAMICS)  min= -8.60698059511275E-06
DEBUG_STATS_RL:               GvNm1 (DYNAMICS)  max=  1.67334787485721E-05
DEBUG_STATS_RL:               GvNm1 (DYNAMICS) mean=  7.72366371314847E-07
DEBUG_STATS_RL:               GvNm1 (DYNAMICS) S.D.=  2.58221718988654E-06
DEBUG_STATS_RL:               GtNm1 (DYNAMICS)  min= -6.89699781161865E-06
DEBUG_STATS_RL:               GtNm1 (DYNAMICS)  max=  5.82884354044645E-06
DEBUG_STATS_RL:               GtNm1 (DYNAMICS) mean=  1.68800273667827E-08
DEBUG_STATS_RL:               GtNm1 (DYNAMICS) S.D.=  2.63126008024901E-07
DEBUG_STATS_RL:               GsNm1 (DYNAMICS)  min= -1.69524349931108E-06
DEBUG_STATS_RL:               GsNm1 (DYNAMICS)  max=  1.66453811994304E-06
DEBUG_STATS_RL:               GsNm1 (DYNAMICS) mean=  1.53104084954730E-10
DEBUG_STATS_RL:               GsNm1 (DYNAMICS) S.D.=  2.67798184562539E-08
DEBUG_STATS_RL:    cg2d_b (SOLVE_FOR_PRESSURE)  min= -1.64427561115713E+04
DEBUG_STATS_RL:    cg2d_b (SOLVE_FOR_PRESSURE)  max=  1.34429496191043E+04
DEBUG_STATS_RL:    cg2d_b (SOLVE_FOR_PRESSURE) mean=  9.40773607950094E-01
DEBUG_STATS_RL:    cg2d_b (SOLVE_FOR_PRESSURE) S.D.=  3.18865017131217E+03
 cg2d: Sum(rhs),rhsMax =   1.32452910426063E-01  1.08000424566599E+00
(PID.TID 0000.0001)  cg2d: iter=     1 ; resid.=  3.40511600543484E-01
(PID.TID 0000.0001)  cg2d: iter=     2 ; resid.=  2.84999248410208E-01
(PID.TID 0000.0001)  cg2d: iter=     3 ; resid.=  2.83998203430496E-01
(PID.TID 0000.0001)  cg2d: iter=     4 ; resid.=  2.49739971491618E-01
(PID.TID 0000.0001)  cg2d: iter=     5 ; resid.=  2.34350450175393E-01
(PID.TID 0000.0001)  cg2d: iter=     6 ; resid.=  1.72501307135410E-01
(PID.TID 0000.0001)  cg2d: iter=     7 ; resid.=  1.70037158764397E-01
(PID.TID 0000.0001)  cg2d: iter=     8 ; resid.=  1.38002278003914E-01
(PID.TID 0000.0001)  cg2d: iter=     9 ; resid.=  1.00122961932871E-01
(PID.TID 0000.0001)  cg2d: iter=    10 ; resid.=  8.73911968468061E-02
(PID.TID 0000.0001)  cg2d: iter=    11 ; resid.=  7.99407269320055E-02
(PID.TID 0000.0001)  cg2d: iter=    12 ; resid.=  5.94183155548756E-02
(PID.TID 0000.0001)  cg2d: iter=    13 ; resid.=  4.72786494756964E-02
(PID.TID 0000.0001)  cg2d: iter=    14 ; resid.=  4.25245223134001E-02
(PID.TID 0000.0001)  cg2d: iter=    15 ; resid.=  3.21098242602063E-02
(PID.TID 0000.0001)  cg2d: iter=    16 ; resid.=  2.60234604506024E-02
(PID.TID 0000.0001)  cg2d: iter=    17 ; resid.=  2.44598346930418E-02
(PID.TID 0000.0001)  cg2d: iter=    18 ; resid.=  1.98566534592664E-02
(PID.TID 0000.0001)  cg2d: iter=    19 ; resid.=  1.51592466970201E-02
(PID.TID 0000.0001)  cg2d: iter=    20 ; resid.=  1.17046281291575E-02
(PID.TID 0000.0001)  cg2d: iter=    21 ; resid.=  9.95312000034038E-03
(PID.TID 0000.0001)  cg2d: iter=    22 ; resid.=  8.98608397182625E-03
(PID.TID 0000.0001)  cg2d: iter=    23 ; resid.=  7.50126277007594E-03
(PID.TID 0000.0001)  cg2d: iter=    24 ; resid.=  6.87571840449434E-03
(PID.TID 0000.0001)  cg2d: iter=    25 ; resid.=  5.54027344709542E-03
(PID.TID 0000.0001)  cg2d: iter=    26 ; resid.=  4.89109835786192E-03
(PID.TID 0000.0001)  cg2d: iter=    27 ; resid.=  4.41673660277437E-03
(PID.TID 0000.0001)  cg2d: iter=    28 ; resid.=  3.99686490901505E-03
(PID.TID 0000.0001)  cg2d: iter=    29 ; resid.=  3.06419172038722E-03
(PID.TID 0000.0001)  cg2d: iter=    30 ; resid.=  2.64190335291280E-03
(PID.TID 0000.0001)  cg2d: iter=    31 ; resid.=  2.15257136287451E-03
(PID.TID 0000.0001)  cg2d: iter=    32 ; resid.=  1.58455648009850E-03
(PID.TID 0000.0001)  cg2d: iter=    33 ; resid.=  1.35017472731043E-03
(PID.TID 0000.0001)  cg2d: iter=    34 ; resid.=  1.23914463877499E-03
(PID.TID 0000.0001)  cg2d: iter=    35 ; resid.=  9.32380435436333E-04
(PID.TID 0000.0001)  cg2d: iter=    36 ; resid.=  7.15629163155448E-04
(PID.TID 0000.0001)  cg2d: iter=    37 ; resid.=  5.66385836526188E-04
(PID.TID 0000.0001)  cg2d: iter=    38 ; resid.=  4.58390999534116E-04
(PID.TID 0000.0001)  cg2d: iter=    39 ; resid.=  3.67750816733017E-04
(PID.TID 0000.0001)  cg2d: iter=    40 ; resid.=  3.24386203977763E-04
(PID.TID 0000.0001)  cg2d: iter=    41 ; resid.=  2.70703188290043E-04
(PID.TID 0000.0001)  cg2d: iter=    42 ; resid.=  2.60907569225985E-04
(PID.TID 0000.0001)  cg2d: iter=    43 ; resid.=  2.29040659355460E-04
(PID.TID 0000.0001)  cg2d: iter=    44 ; resid.=  1.87351565686781E-04
(PID.TID 0000.0001)  cg2d: iter=    45 ; resid.=  1.68030746321660E-04
(PID.TID 0000.0001)  cg2d: iter=    46 ; resid.=  1.44638009799055E-04
(PID.TID 0000.0001)  cg2d: iter=    47 ; resid.=  1.19252162658790E-04
(PID.TID 0000.0001)  cg2d: iter=    48 ; resid.=  9.97101527702174E-05
(PID.TID 0000.0001)  cg2d: iter=    49 ; resid.=  8.04083437443948E-05
(PID.TID 0000.0001)  cg2d: iter=    50 ; resid.=  6.82762688757371E-05
(PID.TID 0000.0001)  cg2d: iter=    51 ; resid.=  6.03228225164472E-05
(PID.TID 0000.0001)  cg2d: iter=    52 ; resid.=  5.22197167773425E-05
(PID.TID 0000.0001)  cg2d: iter=    53 ; resid.=  4.04195977553766E-05
(PID.TID 0000.0001)  cg2d: iter=    54 ; resid.=  3.01799937506393E-05
(PID.TID 0000.0001)  cg2d: iter=    55 ; resid.=  2.43547405855048E-05
(PID.TID 0000.0001)  cg2d: iter=    56 ; resid.=  2.04259504398095E-05
(PID.TID 0000.0001)  cg2d: iter=    57 ; resid.=  1.73686434334311E-05
(PID.TID 0000.0001)  cg2d: iter=    58 ; resid.=  1.26555634259820E-05
(PID.TID 0000.0001)  cg2d: iter=    59 ; resid.=  9.39376666340909E-06
(PID.TID 0000.0001)  cg2d: iter=    60 ; resid.=  7.34051701629419E-06
(PID.TID 0000.0001)  cg2d: iter=    61 ; resid.=  6.06983094194770E-06
(PID.TID 0000.0001)  cg2d: iter=    62 ; resid.=  4.59597322070347E-06
(PID.TID 0000.0001)  cg2d: iter=    63 ; resid.=  3.74117823925773E-06
(PID.TID 0000.0001)  cg2d: iter=    64 ; resid.=  3.99927826024315E-06
(PID.TID 0000.0001)  cg2d: iter=    65 ; resid.=  3.55295875796267E-06
(PID.TID 0000.0001)  cg2d: iter=    66 ; resid.=  2.95890147261219E-06
(PID.TID 0000.0001)  cg2d: iter=    67 ; resid.=  2.55392057907037E-06
(PID.TID 0000.0001)  cg2d: iter=    68 ; resid.=  2.12896574227996E-06
(PID.TID 0000.0001)  cg2d: iter=    69 ; resid.=  1.59401694751241E-06
(PID.TID 0000.0001)  cg2d: iter=    70 ; resid.=  1.28433183225366E-06
(PID.TID 0000.0001)  cg2d: iter=    71 ; resid.=  1.03188080076919E-06
(PID.TID 0000.0001)  cg2d: iter=    72 ; resid.=  8.23694646067932E-07
(PID.TID 0000.0001)  cg2d: iter=    73 ; resid.=  6.85759866671840E-07
(PID.TID 0000.0001)  cg2d: iter=    74 ; resid.=  5.56308112217341E-07
(PID.TID 0000.0001)  cg2d: iter=    75 ; resid.=  3.95944132153370E-07
(PID.TID 0000.0001)  cg2d: iter=    76 ; resid.=  3.31419540817181E-07
(PID.TID 0000.0001)  cg2d: iter=    77 ; resid.=  2.72748997652685E-07
(PID.TID 0000.0001)  cg2d: iter=    78 ; resid.=  2.24755570537321E-07
(PID.TID 0000.0001)  cg2d: iter=    79 ; resid.=  1.98907661530745E-07
(PID.TID 0000.0001)  cg2d: iter=    80 ; resid.=  1.65049329510815E-07
(PID.TID 0000.0001)  cg2d: iter=    81 ; resid.=  1.37277860919610E-07
(PID.TID 0000.0001)  cg2d: iter=    82 ; resid.=  1.12624784975177E-07
(PID.TID 0000.0001)  cg2d: iter=    83 ; resid.=  9.85239279241271E-08
(PID.TID 0000.0001)  cg2d: iter=    84 ; resid.=  7.68355589443764E-08
(PID.TID 0000.0001)  cg2d: iter=    85 ; resid.=  6.01954008940956E-08
(PID.TID 0000.0001)  cg2d: iter=    86 ; resid.=  4.80983856898266E-08
(PID.TID 0000.0001)  cg2d: iter=    87 ; resid.=  3.65737805076375E-08
(PID.TID 0000.0001)  cg2d: iter=    88 ; resid.=  2.89227146621055E-08
(PID.TID 0000.0001)  cg2d: iter=    89 ; resid.=  2.50675409321371E-08
(PID.TID 0000.0001)  cg2d: iter=    90 ; resid.=  2.18972334995789E-08
(PID.TID 0000.0001)  cg2d: iter=    91 ; resid.=  1.95981205556535E-08
(PID.TID 0000.0001)  cg2d: iter=    92 ; resid.=  1.54879818624692E-08
(PID.TID 0000.0001)  cg2d: iter=    93 ; resid.=  1.10538594591787E-08
(PID.TID 0000.0001)  cg2d: iter=    94 ; resid.=  8.15988310429863E-09
(PID.TID 0000.0001)  cg2d: iter=    95 ; resid.=  6.37100684403230E-09
(PID.TID 0000.0001)  cg2d: iter=    96 ; resid.=  4.75529700794920E-09
(PID.TID 0000.0001)  cg2d: iter=    97 ; resid.=  3.32790982677048E-09
(PID.TID 0000.0001)  cg2d: iter=    98 ; resid.=  2.48470611848328E-09
(PID.TID 0000.0001)  cg2d: iter=    99 ; resid.=  2.05787169942963E-09
(PID.TID 0000.0001)  cg2d: iter=   100 ; resid.=  1.69248228149747E-09
(PID.TID 0000.0001)  cg2d: iter=   101 ; resid.=  1.18959024002296E-09
(PID.TID 0000.0001)  cg2d: iter=   102 ; resid.=  8.75729766445137E-10
(PID.TID 0000.0001)  cg2d: iter=   103 ; resid.=  6.85689798781122E-10
(PID.TID 0000.0001)  cg2d: iter=   104 ; resid.=  5.73194739523788E-10
(PID.TID 0000.0001)  cg2d: iter=   105 ; resid.=  4.62982402065560E-10
(PID.TID 0000.0001)  cg2d: iter=   106 ; resid.=  3.89008713238577E-10
(PID.TID 0000.0001)  cg2d: iter=   107 ; resid.=  3.24179913595056E-10
(PID.TID 0000.0001)  cg2d: iter=   108 ; resid.=  2.73526407877772E-10
(PID.TID 0000.0001)  cg2d: iter=   109 ; resid.=  2.35515416873836E-10
(PID.TID 0000.0001)  cg2d: iter=   110 ; resid.=  1.88381085769352E-10
(PID.TID 0000.0001)  cg2d: iter=   111 ; resid.=  1.39299306462716E-10
(PID.TID 0000.0001)  cg2d: iter=   112 ; resid.=  9.74883754075979E-11
(PID.TID 0000.0001)  cg2d: iter=   113 ; resid.=  7.18376953640411E-11
(PID.TID 0000.0001)  cg2d: iter=   114 ; resid.=  5.27204336183027E-11
(PID.TID 0000.0001)  cg2d: iter=   115 ; resid.=  3.83417537010454E-11
(PID.TID 0000.0001)  cg2d: iter=   116 ; resid.=  2.84285048241971E-11
(PID.TID 0000.0001)  cg2d: iter=   117 ; resid.=  2.34843267402580E-11
(PID.TID 0000.0001)  cg2d: iter=   118 ; resid.=  1.87126487820168E-11
(PID.TID 0000.0001)  cg2d: iter=   119 ; resid.=  1.44700150099938E-11
(PID.TID 0000.0001)  cg2d: iter=   120 ; resid.=  1.07000865575382E-11
(PID.TID 0000.0001)  cg2d: iter=   121 ; resid.=  8.40482219736186E-12
(PID.TID 0000.0001)  cg2d: iter=   122 ; resid.=  6.81404464589173E-12
(PID.TID 0000.0001)  cg2d: iter=   123 ; resid.=  5.49954231316275E-12
(PID.TID 0000.0001)  cg2d: iter=   124 ; resid.=  4.21384654276809E-12
(PID.TID 0000.0001)  cg2d: iter=   125 ; resid.=  3.05878826545096E-12
(PID.TID 0000.0001)  cg2d: iter=   126 ; resid.=  2.31447935959896E-12
(PID.TID 0000.0001)  cg2d: iter=   127 ; resid.=  1.61004664045312E-12
(PID.TID 0000.0001)  cg2d: iter=   128 ; resid.=  1.16592512497766E-12
(PID.TID 0000.0001)  cg2d: iter=   129 ; resid.=  7.52549701798503E-13
(PID.TID 0000.0001)  cg2d: iter=   130 ; resid.=  5.04477024061355E-13
(PID.TID 0000.0001)  cg2d: iter=   131 ; resid.=  3.79749233576643E-13
(PID.TID 0000.0001)  cg2d: iter=   132 ; resid.=  2.99710039466327E-13
(PID.TID 0000.0001)  cg2d: iter=   133 ; resid.=  2.18973741891741E-13
(PID.TID 0000.0001)  cg2d: iter=   134 ; resid.=  1.53704816901552E-13
(PID.TID 0000.0001)  cg2d: iter=   135 ; resid.=  1.08789890533139E-13
(PID.TID 0000.0001)  cg2d: iter=   136 ; resid.=  7.29435815751550E-14
DEBUG_STATS_RL:    cg2d_x (SOLVE_FOR_PRESSURE)  min= -2.51994512687651E+01
DEBUG_STATS_RL:    cg2d_x (SOLVE_FOR_PRESSURE)  max=  8.76936571884807E+00
DEBUG_STATS_RL:    cg2d_x (SOLVE_FOR_PRESSURE) mean= -1.75880763409741E+00
DEBUG_STATS_RL:    cg2d_x (SOLVE_FOR_PRESSURE) S.D.=  6.78851912317564E+00
(PID.TID 0000.0001)      cg2d_init_res =   7.41773554497100E-01
(PID.TID 0000.0001)      cg2d_iters(min,last) =      -1     136
(PID.TID 0000.0001)      cg2d_last_res =   7.29435815751550E-14
(PID.TID 0000.0001) // =======================================================
(PID.TID 0000.0001) // Begin MONITOR dynamic field statistics
(PID.TID 0000.0001) // =======================================================
(PID.TID 0000.0001) %MON time_tsnumber                =                    14
(PID.TID 0000.0001) %MON time_secondsf                =   1.2096000000000E+06
(PID.TID 0000.0001) %MON dynstat_eta_max              =   8.9392107225770E-01
(PID.TID 0000.0001) %MON dynstat_eta_min              =  -2.5687514035439E+00
(PID.TID 0000.0001) %MON dynstat_eta_mean             =  -9.8158060781916E-04
(PID.TID 0000.0001) %MON dynstat_eta_sd               =   5.8295888901690E-01
(PID.TID 0000.0001) %MON dynstat_eta_del2             =   1.7375427637184E-03
(PID.TID 0000.0001) %MON dynstat_uvel_max             =   1.8545844728725E-01
(PID.TID 0000.0001) %MON dynstat_uvel_min             =  -9.8640649289777E-02
(PID.TID 0000.0001) %MON dynstat_uvel_mean            =  -1.6794540807164E-04
(PID.TID 0000.0001) %MON dynstat_uvel_sd              =   1.5911502514880E-02
(PID.TID 0000.0001) %MON dynstat_uvel_del2            =   9.8001094810013E-05
(PID.TID 0000.0001) %MON dynstat_vvel_max             =   1.1764712547537E-01
(PID.TID 0000.0001) %MON dynstat_vvel_min             =  -1.1311008989440E-01
(PID.TID 0000.0001) %MON dynstat_vvel_mean            =  -1.9835305171734E-04
(PID.TID 0000.0001) %MON dynstat_vvel_sd              =   9.3296732529906E-03
(PID.TID 0000.0001) %MON dynstat_vvel_del2            =   9.0294969435120E-05
(PID.TID 0000.0001) %MON dynstat_wvel_max             =   1.8415662433410E-04
(PID.TID 0000.0001) %MON dynstat_wvel_min             =  -1.9186752935286E-04
(PID.TID 0000.0001) %MON dynstat_wvel_mean            =  -1.4726651337206E-22
(PID.TID 0000.0001) %MON dynstat_wvel_sd              =   1.9761454174374E-05
(PID.TID 0000.0001) %MON dynstat_wvel_del2            =   2.1229867092778E-07
(PID.TID 0000.0001) %MON dynstat_theta_max            =   2.9845667189002E+01
(PID.TID 0000.0001) %MON dynstat_theta_min            =  -2.0055372664598E+00
(PID.TID 0000.0001) %MON dynstat_theta_mean           =   3.6296678611510E+00
(PID.TID 0000.0001) %MON dynstat_theta_sd             =   4.4150883600519E+00
(PID.TID 0000.0001) %MON dynstat_theta_del2           =   4.9293814152068E-03
(PID.TID 0000.0001) %MON dynstat_salt_max             =   3.7447489584368E+01
(PID.TID 0000.0001) %MON dynstat_salt_min             =   2.9756891955968E+01
(PID.TID 0000.0001) %MON dynstat_salt_mean            =   3.4727971617843E+01
(PID.TID 0000.0001) %MON dynstat_salt_sd              =   2.9619357747708E-01
(PID.TID 0000.0001) %MON dynstat_salt_del2            =   1.0114658571044E-03
(PID.TID 0000.0001) %MON dynstat_sst_max              =   2.9845667189002E+01
(PID.TID 0000.0001) %MON dynstat_sst_min              =  -2.0055372664598E+00
(PID.TID 0000.0001) %MON dynstat_sst_mean             =   1.8657086502639E+01
(PID.TID 0000.0001) %MON dynstat_sst_sd               =   9.0604559967181E+00
(PID.TID 0000.0001) %MON dynstat_sst_del2             =   2.6198675251972E-02
(PID.TID 0000.0001) %MON dynstat_sss_max              =   3.7439429411894E+01
(PID.TID 0000.0001) %MON dynstat_sss_min              =   2.9756891955968E+01
(PID.TID 0000.0001) %MON dynstat_sss_mean             =   3.4864934999211E+01
(PID.TID 0000.0001) %MON dynstat_sss_sd               =   9.6929985884681E-01
(PID.TID 0000.0001) %MON dynstat_sss_del2             =   7.9948801978474E-03
(PID.TID 0000.0001) %MON forcing_qnet_max             =   4.3951724243164E+02
(PID.TID 0000.0001) %MON forcing_qnet_min             =  -1.8160680541992E+02
(PID.TID 0000.0001) %MON forcing_qnet_mean            =  -1.6537549912690E+01
(PID.TID 0000.0001) %MON forcing_qnet_sd              =   1.1023602940575E+02
(PID.TID 0000.0001) %MON forcing_qnet_del2            =   1.0178724043875E+00
(PID.TID 0000.0001) %MON forcing_qsw_max              =   0.0000000000000E+00
(PID.TID 0000.0001) %MON forcing_qsw_min              =   0.0000000000000E+00
(PID.TID 0000.0001) %MON forcing_qsw_mean             =   0.0000000000000E+00
(PID.TID 0000.0001) %MON forcing_qsw_sd               =   0.0000000000000E+00
(PID.TID 0000.0001) %MON forcing_qsw_del2             =   0.0000000000000E+00
(PID.TID 0000.0001) %MON forcing_empmr_max            =   8.1966015841317E-05
(PID.TID 0000.0001) %MON forcing_empmr_min            =  -7.4627556045925E-05
(PID.TID 0000.0001) %MON forcing_empmr_mean           =   9.0339754661961E-07
(PID.TID 0000.0001) %MON forcing_empmr_sd             =   2.8612540665613E-05
(PID.TID 0000.0001) %MON forcing_empmr_del2           =   3.6568031492728E-07
(PID.TID 0000.0001) %MON forcing_fu_max               =   2.7213588953018E-01
(PID.TID 0000.0001) %MON forcing_fu_min               =  -1.6925373077393E-01
(PID.TID 0000.0001) %MON forcing_fu_mean              =   1.6017120794640E-02
(PID.TID 0000.0001) %MON forcing_fu_sd                =   9.0801548316031E-02
(PID.TID 0000.0001) %MON forcing_fu_del2              =   7.0931845625836E-04
(PID.TID 0000.0001) %MON forcing_fv_max               =   2.2936151027679E-01
(PID.TID 0000.0001) %MON forcing_fv_min               =  -1.7930621504784E-01
(PID.TID 0000.0001) %MON forcing_fv_mean              =  -5.4064227932267E-03
(PID.TID 0000.0001) %MON forcing_fv_sd                =   4.7655349358660E-02
(PID.TID 0000.0001) %MON forcing_fv_del2              =   4.8616958739333E-04
(PID.TID 0000.0001) %MON trAdv_CFL_u_max              =   5.2104796455609E-02
(PID.TID 0000.0001) %MON trAdv_CFL_v_max              =   2.2140868335069E-02
(PID.TID 0000.0001) %MON trAdv_CFL_w_max              =   6.3805030170251E-02
(PID.TID 0000.0001) %MON advcfl_uvel_max              =   5.1869528165635E-02
(PID.TID 0000.0001) %MON advcfl_vvel_max              =   2.2856949646818E-02
(PID.TID 0000.0001) %MON advcfl_wvel_max              =   5.8378650885330E-02
(PID.TID 0000.0001) %MON advcfl_W_hf_max              =   6.4459760352552E-02
(PID.TID 0000.0001) %MON pe_b_mean                    =   4.3486883923089E-04
(PID.TID 0000.0001) %MON ke_max                       =   1.6794581536653E-02
(PID.TID 0000.0001) %MON ke_mean                      =   1.5412945569077E-04
(PID.TID 0000.0001) %MON ke_vol                       =   1.3226782436723E+18
(PID.TID 0000.0001) %MON vort_r_min                   =  -4.1989688783285E-07
(PID.TID 0000.0001) %MON vort_r_max                   =   3.6329756683555E-07
(PID.TID 0000.0001) %MON vort_a_mean                  =  -2.5274806918648E-05
(PID.TID 0000.0001) %MON vort_a_sd                    =   7.3604424004025E-05
(PID.TID 0000.0001) %MON vort_p_mean                  =  -3.1845655196191E-05
(PID.TID 0000.0001) %MON vort_p_sd                    =   1.3162226682127E-04
(PID.TID 0000.0001) %MON surfExpan_theta_mean         =  -1.6900385366447E-07
(PID.TID 0000.0001) %MON surfExpan_salt_mean          =   5.2678698258078E-08
(PID.TID 0000.0001) // =======================================================
(PID.TID 0000.0001) // End MONITOR dynamic field statistics
(PID.TID 0000.0001) // =======================================================
 EXTERNAL_FIELDS_LOAD,        14 : iP,iLd,i0,i1=   12    1   12    1 ; Wght=  0.0333333333  0.9666666667
 EXTERNAL_FIELDS_LOAD: (fu0,1),fu,fv= -4.5368E-02 -3.5633E-02 -3.5957E-02 -5.7690E-02
 EXTERNAL_FIELDS_LOAD: SST,SSS,Q,E-P=  8.9807E-01  3.4691E+01  2.6573E+02  1.1584E-05
DEBUG_STATS_RL:          Uvel (THERMODYNAMICS)  min= -9.86406492897774E-02
DEBUG_STATS_RL:          Uvel (THERMODYNAMICS)  max=  1.85458447287247E-01
DEBUG_STATS_RL:          Uvel (THERMODYNAMICS) mean=  4.66824172698763E-03
DEBUG_STATS_RL:          Uvel (THERMODYNAMICS) S.D.=  2.46455462397622E-02
DEBUG_STATS_RL:          Vvel (THERMODYNAMICS)  min= -1.13110089894405E-01
DEBUG_STATS_RL:          Vvel (THERMODYNAMICS)  max=  1.17647125475368E-01
DEBUG_STATS_RL:          Vvel (THERMODYNAMICS) mean= -5.45350942160904E-05
DEBUG_STATS_RL:          Vvel (THERMODYNAMICS) S.D.=  1.42732349853331E-02
DEBUG_STATS_RL:          Wvel (THERMODYNAMICS)  min= -1.91867529352856E-04
DEBUG_STATS_RL:          Wvel (THERMODYNAMICS)  max=  1.84156624334100E-04
DEBUG_STATS_RL:          Wvel (THERMODYNAMICS) mean= -1.21401180869945E-07
DEBUG_STATS_RL:          Wvel (THERMODYNAMICS) S.D.=  1.72840857921296E-05
DEBUG_STATS_RL:         Theta (THERMODYNAMICS)  min= -2.02300041756483E+00
DEBUG_STATS_RL:         Theta (THERMODYNAMICS)  max=  2.98429145848632E+01
DEBUG_STATS_RL:         Theta (THERMODYNAMICS) mean=  3.21766999287905E+00
DEBUG_STATS_RL:         Theta (THERMODYNAMICS) S.D.=  5.85472898287388E+00
DEBUG_STATS_RL:          Salt (THERMODYNAMICS)  min=  9.99999999999999E-03
DEBUG_STATS_RL:          Salt (THERMODYNAMICS)  max=  3.74479384600623E+01
DEBUG_STATS_RL:          Salt (THERMODYNAMICS) mean=  1.88551952820890E+01
DEBUG_STATS_RL:          Salt (THERMODYNAMICS) S.D.=  1.73006734610236E+01
DEBUG_STATS_RL:         GtNm1 (THERMODYNAMICS)  min= -6.51053239033555E-06
DEBUG_STATS_RL:         GtNm1 (THERMODYNAMICS)  max=  5.49084971710246E-06
DEBUG_STATS_RL:         GtNm1 (THERMODYNAMICS) mean=  1.48151323746763E-08
DEBUG_STATS_RL:         GtNm1 (THERMODYNAMICS) S.D.=  2.56053634082289E-07
DEBUG_STATS_RL:         GsNm1 (THERMODYNAMICS)  min= -1.57764404903812E-06
DEBUG_STATS_RL:         GsNm1 (THERMODYNAMICS)  max=  1.56653468681969E-06
DEBUG_STATS_RL:         GsNm1 (THERMODYNAMICS) mean=  1.51720667401823E-10
DEBUG_STATS_RL:         GsNm1 (THERMODYNAMICS) S.D.=  2.60056584842521E-08
DEBUG_STATS_RL:                EtaN (DYNAMICS)  min= -2.56875140354389E+00
DEBUG_STATS_RL:                EtaN (DYNAMICS)  max=  8.93921072257700E-01
DEBUG_STATS_RL:                EtaN (DYNAMICS) mean= -1.79287220601163E-01
DEBUG_STATS_RL:                EtaN (DYNAMICS) S.D.=  6.91999910619331E-01
DEBUG_STATS_RL:                Uvel (DYNAMICS)  min= -9.86406492897774E-02
DEBUG_STATS_RL:                Uvel (DYNAMICS)  max=  1.85458447287247E-01
DEBUG_STATS_RL:                Uvel (DYNAMICS) mean=  4.66824172698763E-03
DEBUG_STATS_RL:                Uvel (DYNAMICS) S.D.=  2.46455462397622E-02
DEBUG_STATS_RL:                Vvel (DYNAMICS)  min= -1.13110089894405E-01
DEBUG_STATS_RL:                Vvel (DYNAMICS)  max=  1.17647125475368E-01
DEBUG_STATS_RL:                Vvel (DYNAMICS) mean= -5.45350942160904E-05
DEBUG_STATS_RL:                Vvel (DYNAMICS) S.D.=  1.42732349853331E-02
DEBUG_STATS_RL:                Wvel (DYNAMICS)  min= -1.91867529352856E-04
DEBUG_STATS_RL:                Wvel (DYNAMICS)  max=  1.84156624334100E-04
DEBUG_STATS_RL:                Wvel (DYNAMICS) mean= -1.21401180869945E-07
DEBUG_STATS_RL:                Wvel (DYNAMICS) S.D.=  1.72840857921296E-05
DEBUG_STATS_RL:               Theta (DYNAMICS)  min= -2.02300041756483E+00
DEBUG_STATS_RL:               Theta (DYNAMICS)  max=  2.98429145848632E+01
DEBUG_STATS_RL:               Theta (DYNAMICS) mean=  3.21766999287905E+00
DEBUG_STATS_RL:               Theta (DYNAMICS) S.D.=  5.85472898287388E+00
DEBUG_STATS_RL:                Salt (DYNAMICS)  min=  9.99999999999999E-03
DEBUG_STATS_RL:                Salt (DYNAMICS)  max=  3.74479384600623E+01
DEBUG_STATS_RL:                Salt (DYNAMICS) mean=  1.88551952820890E+01
DEBUG_STATS_RL:                Salt (DYNAMICS) S.D.=  1.73006734610236E+01
DEBUG_STATS_RL:                  Gu (DYNAMICS)  min= -1.01533701589031E-01
DEBUG_STATS_RL:                  Gu (DYNAMICS)  max=  1.82249581478896E-01
DEBUG_STATS_RL:                  Gu (DYNAMICS) mean=  3.90914787387306E-03
DEBUG_STATS_RL:                  Gu (DYNAMICS) S.D.=  2.50334546799616E-02
DEBUG_STATS_RL:                  Gv (DYNAMICS)  min= -1.10733831858523E-01
DEBUG_STATS_RL:                  Gv (DYNAMICS)  max=  1.13643037618619E-01
DEBUG_STATS_RL:                  Gv (DYNAMICS) mean=  1.88558378110626E-03
DEBUG_STATS_RL:                  Gv (DYNAMICS) S.D.=  1.50959194043641E-02
DEBUG_STATS_RL:               GuNm1 (DYNAMICS)  min= -6.41628112175140E-06
DEBUG_STATS_RL:               GuNm1 (DYNAMICS)  max=  7.34866984971185E-06
DEBUG_STATS_RL:               GuNm1 (DYNAMICS) mean= -2.28189326470209E-08
DEBUG_STATS_RL:               GuNm1 (DYNAMICS) S.D.=  1.10096160511865E-06
DEBUG_STATS_RL:               GvNm1 (DYNAMICS)  min= -8.51237338896912E-06
DEBUG_STATS_RL:               GvNm1 (DYNAMICS)  max=  1.67954660156440E-05
DEBUG_STATS_RL:               GvNm1 (DYNAMICS) mean=  7.72058503239495E-07
DEBUG_STATS_RL:               GvNm1 (DYNAMICS) S.D.=  2.57461204070983E-06
DEBUG_STATS_RL:               GtNm1 (DYNAMICS)  min= -6.51053239033555E-06
DEBUG_STATS_RL:               GtNm1 (DYNAMICS)  max=  5.49084971710246E-06
DEBUG_STATS_RL:               GtNm1 (DYNAMICS) mean=  1.48151323746763E-08
DEBUG_STATS_RL:               GtNm1 (DYNAMICS) S.D.=  2.56053634082289E-07
DEBUG_STATS_RL:               GsNm1 (DYNAMICS)  min= -1.57764404903812E-06
DEBUG_STATS_RL:               GsNm1 (DYNAMICS)  max=  1.56653468681969E-06
DEBUG_STATS_RL:               GsNm1 (DYNAMICS) mean=  1.51720667401823E-10
DEBUG_STATS_RL:               GsNm1 (DYNAMICS) S.D.=  2.60056584842521E-08
DEBUG_STATS_RL:    cg2d_b (SOLVE_FOR_PRESSURE)  min= -1.69615440866941E+04
DEBUG_STATS_RL:    cg2d_b (SOLVE_FOR_PRESSURE)  max=  1.34927893264785E+04
DEBUG_STATS_RL:    cg2d_b (SOLVE_FOR_PRESSURE) mean=  1.01383415194547E+00
DEBUG_STATS_RL:    cg2d_b (SOLVE_FOR_PRESSURE) S.D.=  3.17923717790809E+03
 cg2d: Sum(rhs),rhsMax =   1.38373372716473E-01  1.11407962888831E+00
(PID.TID 0000.0001)  cg2d: iter=     1 ; resid.=  3.03034266515382E-01
(PID.TID 0000.0001)  cg2d: iter=     2 ; resid.=  2.92773739531703E-01
(PID.TID 0000.0001)  cg2d: iter=     3 ; resid.=  2.82016248006986E-01
(PID.TID 0000.0001)  cg2d: iter=     4 ; resid.=  2.39762769464379E-01
(PID.TID 0000.0001)  cg2d: iter=     5 ; resid.=  2.13304165681632E-01
(PID.TID 0000.0001)  cg2d: iter=     6 ; resid.=  1.58774614662766E-01
(PID.TID 0000.0001)  cg2d: iter=     7 ; resid.=  1.46290875789247E-01
(PID.TID 0000.0001)  cg2d: iter=     8 ; resid.=  1.29128960465645E-01
(PID.TID 0000.0001)  cg2d: iter=     9 ; resid.=  1.08189426714574E-01
(PID.TID 0000.0001)  cg2d: iter=    10 ; resid.=  9.66775482190191E-02
(PID.TID 0000.0001)  cg2d: iter=    11 ; resid.=  7.79929040029269E-02
(PID.TID 0000.0001)  cg2d: iter=    12 ; resid.=  5.11837553783686E-02
(PID.TID 0000.0001)  cg2d: iter=    13 ; resid.=  3.87145131181408E-02
(PID.TID 0000.0001)  cg2d: iter=    14 ; resid.=  3.49673525128173E-02
(PID.TID 0000.0001)  cg2d: iter=    15 ; resid.=  2.58756770944138E-02
(PID.TID 0000.0001)  cg2d: iter=    16 ; resid.=  2.02754338097873E-02
(PID.TID 0000.0001)  cg2d: iter=    17 ; resid.=  1.83560832453749E-02
(PID.TID 0000.0001)  cg2d: iter=    18 ; resid.=  1.46247282425475E-02
(PID.TID 0000.0001)  cg2d: iter=    19 ; resid.=  1.08573287438655E-02
(PID.TID 0000.0001)  cg2d: iter=    20 ; resid.=  8.16531513035122E-03
(PID.TID 0000.0001)  cg2d: iter=    21 ; resid.=  7.04324858324760E-03
(PID.TID 0000.0001)  cg2d: iter=    22 ; resid.=  6.32825142221615E-03
(PID.TID 0000.0001)  cg2d: iter=    23 ; resid.=  5.47593128199974E-03
(PID.TID 0000.0001)  cg2d: iter=    24 ; resid.=  4.97783395869996E-03
(PID.TID 0000.0001)  cg2d: iter=    25 ; resid.=  3.97413690978589E-03
(PID.TID 0000.0001)  cg2d: iter=    26 ; resid.=  3.41389120283816E-03
(PID.TID 0000.0001)  cg2d: iter=    27 ; resid.=  2.97947801733251E-03
(PID.TID 0000.0001)  cg2d: iter=    28 ; resid.=  2.55473093548315E-03
(PID.TID 0000.0001)  cg2d: iter=    29 ; resid.=  1.95869931710232E-03
(PID.TID 0000.0001)  cg2d: iter=    30 ; resid.=  1.62712031781782E-03
(PID.TID 0000.0001)  cg2d: iter=    31 ; resid.=  1.37731261921263E-03
(PID.TID 0000.0001)  cg2d: iter=    32 ; resid.=  1.00771208447302E-03
(PID.TID 0000.0001)  cg2d: iter=    33 ; resid.=  8.50447880185197E-04
(PID.TID 0000.0001)  cg2d: iter=    34 ; resid.=  7.53677268056599E-04
(PID.TID 0000.0001)  cg2d: iter=    35 ; resid.=  5.78334254802341E-04
(PID.TID 0000.0001)  cg2d: iter=    36 ; resid.=  4.40845379814445E-04
(PID.TID 0000.0001)  cg2d: iter=    37 ; resid.=  3.38284239198173E-04
(PID.TID 0000.0001)  cg2d: iter=    38 ; resid.=  2.62924473491338E-04
(PID.TID 0000.0001)  cg2d: iter=    39 ; resid.=  2.08166265028718E-04
(PID.TID 0000.0001)  cg2d: iter=    40 ; resid.=  1.70603988466621E-04
(PID.TID 0000.0001)  cg2d: iter=    41 ; resid.=  1.27199363739648E-04
(PID.TID 0000.0001)  cg2d: iter=    42 ; resid.=  1.16128469928824E-04
(PID.TID 0000.0001)  cg2d: iter=    43 ; resid.=  1.01832983158476E-04
(PID.TID 0000.0001)  cg2d: iter=    44 ; resid.=  8.66047746386076E-05
(PID.TID 0000.0001)  cg2d: iter=    45 ; resid.=  7.59830381475118E-05
(PID.TID 0000.0001)  cg2d: iter=    46 ; resid.=  6.74120867181363E-05
(PID.TID 0000.0001)  cg2d: iter=    47 ; resid.=  6.16746397776052E-05
(PID.TID 0000.0001)  cg2d: iter=    48 ; resid.=  5.79497917729121E-05
(PID.TID 0000.0001)  cg2d: iter=    49 ; resid.=  4.82388013605745E-05
(PID.TID 0000.0001)  cg2d: iter=    50 ; resid.=  3.78417790343529E-05
(PID.TID 0000.0001)  cg2d: iter=    51 ; resid.=  2.91626481373426E-05
(PID.TID 0000.0001)  cg2d: iter=    52 ; resid.=  2.40168723186897E-05
(PID.TID 0000.0001)  cg2d: iter=    53 ; resid.=  1.94853909155176E-05
(PID.TID 0000.0001)  cg2d: iter=    54 ; resid.=  1.62420082879985E-05
(PID.TID 0000.0001)  cg2d: iter=    55 ; resid.=  1.29062489969260E-05
(PID.TID 0000.0001)  cg2d: iter=    56 ; resid.=  1.09816613381647E-05
(PID.TID 0000.0001)  cg2d: iter=    57 ; resid.=  9.82503277333594E-06
(PID.TID 0000.0001)  cg2d: iter=    58 ; resid.=  7.71972984190399E-06
(PID.TID 0000.0001)  cg2d: iter=    59 ; resid.=  6.18744363815726E-06
(PID.TID 0000.0001)  cg2d: iter=    60 ; resid.=  5.02312983776907E-06
(PID.TID 0000.0001)  cg2d: iter=    61 ; resid.=  4.03777091223782E-06
(PID.TID 0000.0001)  cg2d: iter=    62 ; resid.=  3.07936183678081E-06
(PID.TID 0000.0001)  cg2d: iter=    63 ; resid.=  2.56906844227553E-06
(PID.TID 0000.0001)  cg2d: iter=    64 ; resid.=  2.62974671230132E-06
(PID.TID 0000.0001)  cg2d: iter=    65 ; resid.=  2.26959941099122E-06
(PID.TID 0000.0001)  cg2d: iter=    66 ; resid.=  1.75931343822104E-06
(PID.TID 0000.0001)  cg2d: iter=    67 ; resid.=  1.49691443321068E-06
(PID.TID 0000.0001)  cg2d: iter=    68 ; resid.=  1.39299842318624E-06
(PID.TID 0000.0001)  cg2d: iter=    69 ; resid.=  1.18803480329493E-06
(PID.TID 0000.0001)  cg2d: iter=    70 ; resid.=  1.03946764289624E-06
(PID.TID 0000.0001)  cg2d: iter=    71 ; resid.=  8.61679891972599E-07
(PID.TID 0000.0001)  cg2d: iter=    72 ; resid.=  6.51752385456697E-07
(PID.TID 0000.0001)  cg2d: iter=    73 ; resid.=  5.05546921190645E-07
(PID.TID 0000.0001)  cg2d: iter=    74 ; resid.=  4.12655359026980E-07
(PID.TID 0000.0001)  cg2d: iter=    75 ; resid.=  3.01509262653436E-07
(PID.TID 0000.0001)  cg2d: iter=    76 ; resid.=  2.45292103429862E-07
(PID.TID 0000.0001)  cg2d: iter=    77 ; resid.=  2.11388330694096E-07
(PID.TID 0000.0001)  cg2d: iter=    78 ; resid.=  1.88740359375822E-07
(PID.TID 0000.0001)  cg2d: iter=    79 ; resid.=  1.64712641229200E-07
(PID.TID 0000.0001)  cg2d: iter=    80 ; resid.=  1.35221914319459E-07
(PID.TID 0000.0001)  cg2d: iter=    81 ; resid.=  1.19183588622853E-07
(PID.TID 0000.0001)  cg2d: iter=    82 ; resid.=  1.02891557454410E-07
(PID.TID 0000.0001)  cg2d: iter=    83 ; resid.=  9.05118178895465E-08
(PID.TID 0000.0001)  cg2d: iter=    84 ; resid.=  6.87390139073531E-08
(PID.TID 0000.0001)  cg2d: iter=    85 ; resid.=  5.37100766930795E-08
(PID.TID 0000.0001)  cg2d: iter=    86 ; resid.=  4.18847074710968E-08
(PID.TID 0000.0001)  cg2d: iter=    87 ; resid.=  3.05036214043796E-08
(PID.TID 0000.0001)  cg2d: iter=    88 ; resid.=  2.23852764026796E-08
(PID.TID 0000.0001)  cg2d: iter=    89 ; resid.=  1.78449722045506E-08
(PID.TID 0000.0001)  cg2d: iter=    90 ; resid.=  1.45287499434445E-08
(PID.TID 0000.0001)  cg2d: iter=    91 ; resid.=  1.17599957238558E-08
(PID.TID 0000.0001)  cg2d: iter=    92 ; resid.=  9.43015915974694E-09
(PID.TID 0000.0001)  cg2d: iter=    93 ; resid.=  7.35752323207673E-09
(PID.TID 0000.0001)  cg2d: iter=    94 ; resid.=  6.05803364556439E-09
(PID.TID 0000.0001)  cg2d: iter=    95 ; resid.=  5.09347802811515E-09
(PID.TID 0000.0001)  cg2d: iter=    96 ; resid.=  3.97305565251262E-09
(PID.TID 0000.0001)  cg2d: iter=    97 ; resid.=  2.80606402257615E-09
(PID.TID 0000.0001)  cg2d: iter=    98 ; resid.=  1.99854299385154E-09
(PID.TID 0000.0001)  cg2d: iter=    99 ; resid.=  1.55484789085877E-09
(PID.TID 0000.0001)  cg2d: iter=   100 ; resid.=  1.25103168805885E-09
(PID.TID 0000.0001)  cg2d: iter=   101 ; resid.=  9.23379957900444E-10
(PID.TID 0000.0001)  cg2d: iter=   102 ; resid.=  6.89879112315282E-10
(PID.TID 0000.0001)  cg2d: iter=   103 ; resid.=  5.01089380698806E-10
(PID.TID 0000.0001)  cg2d: iter=   104 ; resid.=  3.56257899610832E-10
(PID.TID 0000.0001)  cg2d: iter=   105 ; resid.=  2.40323327298881E-10
(PID.TID 0000.0001)  cg2d: iter=   106 ; resid.=  1.69972073851835E-10
(PID.TID 0000.0001)  cg2d: iter=   107 ; resid.=  1.14598049857266E-10
(PID.TID 0000.0001)  cg2d: iter=   108 ; resid.=  7.81886510958581E-11
(PID.TID 0000.0001)  cg2d: iter=   109 ; resid.=  5.37457164437749E-11
(PID.TID 0000.0001)  cg2d: iter=   110 ; resid.=  3.78503754841520E-11
(PID.TID 0000.0001)  cg2d: iter=   111 ; resid.=  2.72470677949673E-11
(PID.TID 0000.0001)  cg2d: iter=   112 ; resid.=  2.12988601578776E-11
(PID.TID 0000.0001)  cg2d: iter=   113 ; resid.=  1.77385036666415E-11
(PID.TID 0000.0001)  cg2d: iter=   114 ; resid.=  1.48099051436900E-11
(PID.TID 0000.0001)  cg2d: iter=   115 ; resid.=  1.19922489070150E-11
(PID.TID 0000.0001)  cg2d: iter=   116 ; resid.=  1.00306785428305E-11
(PID.TID 0000.0001)  cg2d: iter=   117 ; resid.=  8.59655470660713E-12
(PID.TID 0000.0001)  cg2d: iter=   118 ; resid.=  6.91619673434626E-12
(PID.TID 0000.0001)  cg2d: iter=   119 ; resid.=  5.35660701689324E-12
(PID.TID 0000.0001)  cg2d: iter=   120 ; resid.=  4.09091463993943E-12
(PID.TID 0000.0001)  cg2d: iter=   121 ; resid.=  3.31960129558648E-12
(PID.TID 0000.0001)  cg2d: iter=   122 ; resid.=  2.61321250923413E-12
(PID.TID 0000.0001)  cg2d: iter=   123 ; resid.=  2.03144179511727E-12
(PID.TID 0000.0001)  cg2d: iter=   124 ; resid.=  1.55554488218359E-12
(PID.TID 0000.0001)  cg2d: iter=   125 ; resid.=  1.20527985202660E-12
(PID.TID 0000.0001)  cg2d: iter=   126 ; resid.=  9.96487502541924E-13
(PID.TID 0000.0001)  cg2d: iter=   127 ; resid.=  7.20320607687423E-13
(PID.TID 0000.0001)  cg2d: iter=   128 ; resid.=  5.51998357312861E-13
(PID.TID 0000.0001)  cg2d: iter=   129 ; resid.=  4.12413675604251E-13
(PID.TID 0000.0001)  cg2d: iter=   130 ; resid.=  3.15713629460216E-13
(PID.TID 0000.0001)  cg2d: iter=   131 ; resid.=  2.51548569029994E-13
(PID.TID 0000.0001)  cg2d: iter=   132 ; resid.=  1.92264028137192E-13
(PID.TID 0000.0001)  cg2d: iter=   133 ; resid.=  1.43225248999258E-13
(PID.TID 0000.0001)  cg2d: iter=   134 ; resid.=  1.10047322171727E-13
(PID.TID 0000.0001)  cg2d: iter=   135 ; resid.=  8.05660840959899E-14
DEBUG_STATS_RL:    cg2d_x (SOLVE_FOR_PRESSURE)  min= -2.41000115268142E+01
DEBUG_STATS_RL:    cg2d_x (SOLVE_FOR_PRESSURE)  max=  8.73957245382160E+00
DEBUG_STATS_RL:    cg2d_x (SOLVE_FOR_PRESSURE) mean= -1.71786054311579E+00
DEBUG_STATS_RL:    cg2d_x (SOLVE_FOR_PRESSURE) S.D.=  6.63752170944000E+00
(PID.TID 0000.0001)      cg2d_init_res =   6.75828935053793E-01
(PID.TID 0000.0001)      cg2d_iters(min,last) =      -1     135
(PID.TID 0000.0001)      cg2d_last_res =   8.05660840959899E-14
(PID.TID 0000.0001) // =======================================================
(PID.TID 0000.0001) // Begin MONITOR dynamic field statistics
(PID.TID 0000.0001) // =======================================================
(PID.TID 0000.0001) %MON time_tsnumber                =                    15
(PID.TID 0000.0001) %MON time_secondsf                =   1.2960000000000E+06
(PID.TID 0000.0001) %MON dynstat_eta_max              =   8.9088404218364E-01
(PID.TID 0000.0001) %MON dynstat_eta_min              =  -2.4566780353532E+00
(PID.TID 0000.0001) %MON dynstat_eta_mean             =  -1.0578102262704E-03
(PID.TID 0000.0001) %MON dynstat_eta_sd               =   5.7541242373632E-01
(PID.TID 0000.0001) %MON dynstat_eta_del2             =   1.7311854171959E-03
(PID.TID 0000.0001) %MON dynstat_uvel_max             =   1.8252178565222E-01
(PID.TID 0000.0001) %MON dynstat_uvel_min             =  -1.0547846451174E-01
(PID.TID 0000.0001) %MON dynstat_uvel_mean            =  -5.2114450562171E-04
(PID.TID 0000.0001) %MON dynstat_uvel_sd              =   1.6174459181355E-02
(PID.TID 0000.0001) %MON dynstat_uvel_del2            =   9.9181605866104E-05
(PID.TID 0000.0001) %MON dynstat_vvel_max             =   1.2172363935865E-01
(PID.TID 0000.0001) %MON dynstat_vvel_min             =  -1.1580319304413E-01
(PID.TID 0000.0001) %MON dynstat_vvel_mean            =  -1.0228909623403E-04
(PID.TID 0000.0001) %MON dynstat_vvel_sd              =   9.1995224744058E-03
(PID.TID 0000.0001) %MON dynstat_vvel_del2            =   8.8640008969867E-05
(PID.TID 0000.0001) %MON dynstat_wvel_max             =   1.9423367977327E-04
(PID.TID 0000.0001) %MON dynstat_wvel_min             =  -1.9815989617434E-04
(PID.TID 0000.0001) %MON dynstat_wvel_mean            =  -1.0528047603423E-23
(PID.TID 0000.0001) %MON dynstat_wvel_sd              =   1.9575762849749E-05
(PID.TID 0000.0001) %MON dynstat_wvel_del2            =   2.1412638997643E-07
(PID.TID 0000.0001) %MON dynstat_theta_max            =   2.9842914584863E+01
(PID.TID 0000.0001) %MON dynstat_theta_min            =  -2.0230004175648E+00
(PID.TID 0000.0001) %MON dynstat_theta_mean           =   3.6297709641817E+00
(PID.TID 0000.0001) %MON dynstat_theta_sd             =   4.4152163435809E+00
(PID.TID 0000.0001) %MON dynstat_theta_del2           =   4.9079969618909E-03
(PID.TID 0000.0001) %MON dynstat_salt_max             =   3.7447938460062E+01
(PID.TID 0000.0001) %MON dynstat_salt_min             =   2.9754929972104E+01
(PID.TID 0000.0001) %MON dynstat_salt_mean            =   3.4727971671227E+01
(PID.TID 0000.0001) %MON dynstat_salt_sd              =   2.9620691488808E-01
(PID.TID 0000.0001) %MON dynstat_salt_del2            =   1.0118108904014E-03
(PID.TID 0000.0001) %MON dynstat_sst_max              =   2.9842914584863E+01
(PID.TID 0000.0001) %MON dynstat_sst_min              =  -2.0230004175648E+00
(PID.TID 0000.0001) %MON dynstat_sst_mean             =   1.8665976687763E+01
(PID.TID 0000.0001) %MON dynstat_sst_sd               =   9.0578366645372E+00
(PID.TID 0000.0001) %MON dynstat_sst_del2             =   2.6227178208934E-02
(PID.TID 0000.0001) %MON dynstat_sss_max              =   3.7439312175146E+01
(PID.TID 0000.0001) %MON dynstat_sss_min              =   2.9754929972104E+01
(PID.TID 0000.0001) %MON dynstat_sss_mean             =   3.4864868833176E+01
(PID.TID 0000.0001) %MON dynstat_sss_sd               =   9.6982401030221E-01
(PID.TID 0000.0001) %MON dynstat_sss_del2             =   7.9951699672641E-03
(PID.TID 0000.0001) %MON forcing_qnet_max             =   4.4056542968750E+02
(PID.TID 0000.0001) %MON forcing_qnet_min             =  -1.8146606140137E+02
(PID.TID 0000.0001) %MON forcing_qnet_mean            =  -1.6525037956867E+01
(PID.TID 0000.0001) %MON forcing_qnet_sd              =   1.1005308947553E+02
(PID.TID 0000.0001) %MON forcing_qnet_del2            =   1.0211400522004E+00
(PID.TID 0000.0001) %MON forcing_qsw_max              =   0.0000000000000E+00
(PID.TID 0000.0001) %MON forcing_qsw_min              =   0.0000000000000E+00
(PID.TID 0000.0001) %MON forcing_qsw_mean             =   0.0000000000000E+00
(PID.TID 0000.0001) %MON forcing_qsw_sd               =   0.0000000000000E+00
(PID.TID 0000.0001) %MON forcing_qsw_del2             =   0.0000000000000E+00
(PID.TID 0000.0001) %MON forcing_empmr_max            =   8.2070127405132E-05
(PID.TID 0000.0001) %MON forcing_empmr_min            =  -7.5009903355294E-05
(PID.TID 0000.0001) %MON forcing_empmr_mean           =   9.1316730436512E-07
(PID.TID 0000.0001) %MON forcing_empmr_sd             =   2.8704317606931E-05
(PID.TID 0000.0001) %MON forcing_empmr_del2           =   3.6657303344582E-07
(PID.TID 0000.0001) %MON forcing_fu_max               =   2.7545738518238E-01
(PID.TID 0000.0001) %MON forcing_fu_min               =  -1.7006715089083E-01
(PID.TID 0000.0001) %MON forcing_fu_mean              =   1.6009427973603E-02
(PID.TID 0000.0001) %MON forcing_fu_sd                =   9.0926657900263E-02
(PID.TID 0000.0001) %MON forcing_fu_del2              =   7.1687269957315E-04
(PID.TID 0000.0001) %MON forcing_fv_max               =   2.3124141544104E-01
(PID.TID 0000.0001) %MON forcing_fv_min               =  -1.7872155755758E-01
(PID.TID 0000.0001) %MON forcing_fv_mean              =  -5.3326602663659E-03
(PID.TID 0000.0001) %MON forcing_fv_sd                =   4.7945514242523E-02
(PID.TID 0000.0001) %MON forcing_fv_del2              =   4.9262259263652E-04
(PID.TID 0000.0001) %MON trAdv_CFL_u_max              =   5.1880063237782E-02
(PID.TID 0000.0001) %MON trAdv_CFL_v_max              =   2.3046593748389E-02
(PID.TID 0000.0001) %MON trAdv_CFL_w_max              =   6.4459760352552E-02
(PID.TID 0000.0001) %MON advcfl_uvel_max              =   5.1048194569785E-02
(PID.TID 0000.0001) %MON advcfl_vvel_max              =   2.3648950914916E-02
(PID.TID 0000.0001) %MON advcfl_wvel_max              =   5.8374534458047E-02
(PID.TID 0000.0001) %MON advcfl_W_hf_max              =   6.4455215130760E-02
(PID.TID 0000.0001) %MON pe_b_mean                    =   4.2368309593288E-04
(PID.TID 0000.0001) %MON ke_max                       =   1.6723395084133E-02
(PID.TID 0000.0001) %MON ke_mean                      =   1.5697755115837E-04
(PID.TID 0000.0001) %MON ke_vol                       =   1.3226782436723E+18
(PID.TID 0000.0001) %MON vort_r_min                   =  -4.0959626716394E-07
(PID.TID 0000.0001) %MON vort_r_max                   =   3.9334422012017E-07
(PID.TID 0000.0001) %MON vort_a_mean                  =  -2.5274807111947E-05
(PID.TID 0000.0001) %MON vort_a_sd                    =   7.3604344361027E-05
(PID.TID 0000.0001) %MON vort_p_mean                  =  -3.1845655439744E-05
(PID.TID 0000.0001) %MON vort_p_sd                    =   1.3162223079039E-04
(PID.TID 0000.0001) %MON surfExpan_theta_mean         =  -3.2979149620616E-07
(PID.TID 0000.0001) %MON surfExpan_salt_mean          =   4.8715397092163E-08
(PID.TID 0000.0001) // =======================================================
(PID.TID 0000.0001) // End MONITOR dynamic field statistics
(PID.TID 0000.0001) // =======================================================
 EXTERNAL_FIELDS_LOAD,        15 : iP,iLd,i0,i1=   12    1    1    2 ; Wght=  1.0000000000  0.0000000000
 EXTERNAL_FIELDS_LOAD, it=        15 : Reading new data, i0,i1=    1    2 (prev=   12    1 )
(PID.TID 0000.0001)  MDS_READ_FIELD: opening global file: trenberth_taux.bin
(PID.TID 0000.0001)  MDS_READ_FIELD: opening global file: trenberth_taux.bin
(PID.TID 0000.0001)  MDS_READ_FIELD: opening global file: trenberth_tauy.bin
(PID.TID 0000.0001)  MDS_READ_FIELD: opening global file: trenberth_tauy.bin
(PID.TID 0000.0001)  MDS_READ_FIELD: opening global file: ncep_qnet.bin
(PID.TID 0000.0001)  MDS_READ_FIELD: opening global file: ncep_qnet.bin
(PID.TID 0000.0001)  MDS_READ_FIELD: opening global file: ncep_emp.bin
(PID.TID 0000.0001)  MDS_READ_FIELD: opening global file: ncep_emp.bin
(PID.TID 0000.0001)  MDS_READ_FIELD: opening global file: lev_sst.bin
(PID.TID 0000.0001)  MDS_READ_FIELD: opening global file: lev_sst.bin
(PID.TID 0000.0001)  MDS_READ_FIELD: opening global file: lev_sss.bin
(PID.TID 0000.0001)  MDS_READ_FIELD: opening global file: lev_sss.bin
 EXTERNAL_FIELDS_LOAD: (fu0,1),fu,fv= -3.5633E-02 -1.4435E-02 -3.5633E-02 -5.7257E-02
 EXTERNAL_FIELDS_LOAD: SST,SSS,Q,E-P=  9.5843E-01  3.4715E+01  2.6577E+02  1.1637E-05
DEBUG_STATS_RL:          Uvel (THERMODYNAMICS)  min= -1.05478464511742E-01
DEBUG_STATS_RL:          Uvel (THERMODYNAMICS)  max=  1.82521785652218E-01
DEBUG_STATS_RL:          Uvel (THERMODYNAMICS) mean=  4.31403668478852E-03
DEBUG_STATS_RL:          Uvel (THERMODYNAMICS) S.D.=  2.48709585878372E-02
DEBUG_STATS_RL:          Vvel (THERMODYNAMICS)  min= -1.15803193044130E-01
DEBUG_STATS_RL:          Vvel (THERMODYNAMICS)  max=  1.21723639358645E-01
DEBUG_STATS_RL:          Vvel (THERMODYNAMICS) mean=  4.24986577268313E-04
DEBUG_STATS_RL:          Vvel (THERMODYNAMICS) S.D.=  1.43715521912763E-02
DEBUG_STATS_RL:          Wvel (THERMODYNAMICS)  min= -1.98159896174340E-04
DEBUG_STATS_RL:          Wvel (THERMODYNAMICS)  max=  1.94233679773271E-04
DEBUG_STATS_RL:          Wvel (THERMODYNAMICS) mean=  1.27188467854741E-09
DEBUG_STATS_RL:          Wvel (THERMODYNAMICS) S.D.=  1.71562289612060E-05
DEBUG_STATS_RL:         Theta (THERMODYNAMICS)  min= -2.02313885253395E+00
DEBUG_STATS_RL:         Theta (THERMODYNAMICS)  max=  2.98410985747193E+01
DEBUG_STATS_RL:         Theta (THERMODYNAMICS) mean=  3.21813556104881E+00
DEBUG_STATS_RL:         Theta (THERMODYNAMICS) S.D.=  5.85532933198233E+00
DEBUG_STATS_RL:          Salt (THERMODYNAMICS)  min=  9.99999999999999E-03
DEBUG_STATS_RL:          Salt (THERMODYNAMICS)  max=  3.74485023944578E+01
DEBUG_STATS_RL:          Salt (THERMODYNAMICS) mean=  1.88551994883791E+01
DEBUG_STATS_RL:          Salt (THERMODYNAMICS) S.D.=  1.73006783269430E+01
DEBUG_STATS_RL:         GtNm1 (THERMODYNAMICS)  min= -4.65051162869698E-06
DEBUG_STATS_RL:         GtNm1 (THERMODYNAMICS)  max=  4.06946040466717E-06
DEBUG_STATS_RL:         GtNm1 (THERMODYNAMICS) mean=  1.23700070066875E-08
DEBUG_STATS_RL:         GtNm1 (THERMODYNAMICS) S.D.=  2.47705796329704E-07
DEBUG_STATS_RL:         GsNm1 (THERMODYNAMICS)  min= -1.03027696834511E-06
DEBUG_STATS_RL:         GsNm1 (THERMODYNAMICS)  max=  1.15303461587824E-06
DEBUG_STATS_RL:         GsNm1 (THERMODYNAMICS) mean=  1.09240443411018E-10
DEBUG_STATS_RL:         GsNm1 (THERMODYNAMICS) S.D.=  2.37011462141605E-08
DEBUG_STATS_RL:                EtaN (DYNAMICS)  min= -2.45667803535316E+00
DEBUG_STATS_RL:                EtaN (DYNAMICS)  max=  8.90884042183638E-01
DEBUG_STATS_RL:                EtaN (DYNAMICS) mean= -1.75113205210581E-01
DEBUG_STATS_RL:                EtaN (DYNAMICS) S.D.=  6.76607717577982E-01
DEBUG_STATS_RL:                Uvel (DYNAMICS)  min= -1.05478464511742E-01
DEBUG_STATS_RL:                Uvel (DYNAMICS)  max=  1.82521785652218E-01
DEBUG_STATS_RL:                Uvel (DYNAMICS) mean=  4.31403668478852E-03
DEBUG_STATS_RL:                Uvel (DYNAMICS) S.D.=  2.48709585878372E-02
DEBUG_STATS_RL:                Vvel (DYNAMICS)  min= -1.15803193044130E-01
DEBUG_STATS_RL:                Vvel (DYNAMICS)  max=  1.21723639358645E-01
DEBUG_STATS_RL:                Vvel (DYNAMICS) mean=  4.24986577268313E-04
DEBUG_STATS_RL:                Vvel (DYNAMICS) S.D.=  1.43715521912763E-02
DEBUG_STATS_RL:                Wvel (DYNAMICS)  min= -1.98159896174340E-04
DEBUG_STATS_RL:                Wvel (DYNAMICS)  max=  1.94233679773271E-04
DEBUG_STATS_RL:                Wvel (DYNAMICS) mean=  1.27188467854741E-09
DEBUG_STATS_RL:                Wvel (DYNAMICS) S.D.=  1.71562289612060E-05
DEBUG_STATS_RL:               Theta (DYNAMICS)  min= -2.02313885253395E+00
DEBUG_STATS_RL:               Theta (DYNAMICS)  max=  2.98410985747193E+01
DEBUG_STATS_RL:               Theta (DYNAMICS) mean=  3.21813556104881E+00
DEBUG_STATS_RL:               Theta (DYNAMICS) S.D.=  5.85532933198233E+00
DEBUG_STATS_RL:                Salt (DYNAMICS)  min=  9.99999999999999E-03
DEBUG_STATS_RL:                Salt (DYNAMICS)  max=  3.74485023944578E+01
DEBUG_STATS_RL:                Salt (DYNAMICS) mean=  1.88551994883791E+01
DEBUG_STATS_RL:                Salt (DYNAMICS) S.D.=  1.73006783269430E+01
DEBUG_STATS_RL:                  Gu (DYNAMICS)  min= -1.09037275364139E-01
DEBUG_STATS_RL:                  Gu (DYNAMICS)  max=  1.82485262446219E-01
DEBUG_STATS_RL:                  Gu (DYNAMICS) mean=  3.60429699825710E-03
DEBUG_STATS_RL:                  Gu (DYNAMICS) S.D.=  2.50141537907701E-02
DEBUG_STATS_RL:                  Gv (DYNAMICS)  min= -1.13077793005689E-01
DEBUG_STATS_RL:                  Gv (DYNAMICS)  max=  1.17415658392724E-01
DEBUG_STATS_RL:                  Gv (DYNAMICS) mean=  2.39374813720342E-03
DEBUG_STATS_RL:                  Gv (DYNAMICS) S.D.=  1.56893242446192E-02
DEBUG_STATS_RL:               GuNm1 (DYNAMICS)  min= -6.55482420256215E-06
DEBUG_STATS_RL:               GuNm1 (DYNAMICS)  max=  7.40711008038405E-06
DEBUG_STATS_RL:               GuNm1 (DYNAMICS) mean= -2.07684469587588E-08
DEBUG_STATS_RL:               GuNm1 (DYNAMICS) S.D.=  1.10318997933695E-06
DEBUG_STATS_RL:               GvNm1 (DYNAMICS)  min= -8.47827541414474E-06
DEBUG_STATS_RL:               GvNm1 (DYNAMICS)  max=  1.68512323104545E-05
DEBUG_STATS_RL:               GvNm1 (DYNAMICS) mean=  7.72024329899060E-07
DEBUG_STATS_RL:               GvNm1 (DYNAMICS) S.D.=  2.57073776624303E-06
DEBUG_STATS_RL:               GtNm1 (DYNAMICS)  min= -4.65051162869698E-06
DEBUG_STATS_RL:               GtNm1 (DYNAMICS)  max=  4.06946040466717E-06
DEBUG_STATS_RL:               GtNm1 (DYNAMICS) mean=  1.23700070066875E-08
DEBUG_STATS_RL:               GtNm1 (DYNAMICS) S.D.=  2.47705796329704E-07
DEBUG_STATS_RL:               GsNm1 (DYNAMICS)  min= -1.03027696834511E-06
DEBUG_STATS_RL:               GsNm1 (DYNAMICS)  max=  1.15303461587824E-06
DEBUG_STATS_RL:               GsNm1 (DYNAMICS) mean=  1.09240443411018E-10
DEBUG_STATS_RL:               GsNm1 (DYNAMICS) S.D.=  2.37011462141605E-08
DEBUG_STATS_RL:    cg2d_b (SOLVE_FOR_PRESSURE)  min= -1.76862071457573E+04
DEBUG_STATS_RL:    cg2d_b (SOLVE_FOR_PRESSURE)  max=  1.36586943868446E+04
DEBUG_STATS_RL:    cg2d_b (SOLVE_FOR_PRESSURE) mean=  1.08767635316024E+00
DEBUG_STATS_RL:    cg2d_b (SOLVE_FOR_PRESSURE) S.D.=  3.19152327566065E+03
 cg2d: Sum(rhs),rhsMax =   1.42369177111553E-01  1.16167743883909E+00
(PID.TID 0000.0001)  cg2d: iter=     1 ; resid.=  2.84290498166406E-01
(PID.TID 0000.0001)  cg2d: iter=     2 ; resid.=  2.94199763397201E-01
(PID.TID 0000.0001)  cg2d: iter=     3 ; resid.=  2.53456139431319E-01
(PID.TID 0000.0001)  cg2d: iter=     4 ; resid.=  1.91261504667399E-01
(PID.TID 0000.0001)  cg2d: iter=     5 ; resid.=  1.79481298874022E-01
(PID.TID 0000.0001)  cg2d: iter=     6 ; resid.=  1.46371550025093E-01
(PID.TID 0000.0001)  cg2d: iter=     7 ; resid.=  1.32449450462957E-01
(PID.TID 0000.0001)  cg2d: iter=     8 ; resid.=  1.16877364001555E-01
(PID.TID 0000.0001)  cg2d: iter=     9 ; resid.=  1.06454383907254E-01
(PID.TID 0000.0001)  cg2d: iter=    10 ; resid.=  9.57136758488759E-02
(PID.TID 0000.0001)  cg2d: iter=    11 ; resid.=  7.81588616368912E-02
(PID.TID 0000.0001)  cg2d: iter=    12 ; resid.=  5.48329601866030E-02
(PID.TID 0000.0001)  cg2d: iter=    13 ; resid.=  4.17569651653974E-02
(PID.TID 0000.0001)  cg2d: iter=    14 ; resid.=  3.39834590908233E-02
(PID.TID 0000.0001)  cg2d: iter=    15 ; resid.=  2.45139834841251E-02
(PID.TID 0000.0001)  cg2d: iter=    16 ; resid.=  2.04669887467018E-02
(PID.TID 0000.0001)  cg2d: iter=    17 ; resid.=  1.93778238443635E-02
(PID.TID 0000.0001)  cg2d: iter=    18 ; resid.=  1.53525199661710E-02
(PID.TID 0000.0001)  cg2d: iter=    19 ; resid.=  1.13365697547737E-02
(PID.TID 0000.0001)  cg2d: iter=    20 ; resid.=  8.34872435213132E-03
(PID.TID 0000.0001)  cg2d: iter=    21 ; resid.=  7.30571148083218E-03
(PID.TID 0000.0001)  cg2d: iter=    22 ; resid.=  6.72738768828922E-03
(PID.TID 0000.0001)  cg2d: iter=    23 ; resid.=  6.02227773070040E-03
(PID.TID 0000.0001)  cg2d: iter=    24 ; resid.=  5.80352780977808E-03
(PID.TID 0000.0001)  cg2d: iter=    25 ; resid.=  4.92423672747759E-03
(PID.TID 0000.0001)  cg2d: iter=    26 ; resid.=  4.19432556019961E-03
(PID.TID 0000.0001)  cg2d: iter=    27 ; resid.=  3.49338542852351E-03
(PID.TID 0000.0001)  cg2d: iter=    28 ; resid.=  2.79707042774195E-03
(PID.TID 0000.0001)  cg2d: iter=    29 ; resid.=  2.11028157225849E-03
(PID.TID 0000.0001)  cg2d: iter=    30 ; resid.=  1.76162589357822E-03
(PID.TID 0000.0001)  cg2d: iter=    31 ; resid.=  1.57885561524813E-03
(PID.TID 0000.0001)  cg2d: iter=    32 ; resid.=  1.14153003283597E-03
(PID.TID 0000.0001)  cg2d: iter=    33 ; resid.=  9.80661826519639E-04
(PID.TID 0000.0001)  cg2d: iter=    34 ; resid.=  8.67914120951233E-04
(PID.TID 0000.0001)  cg2d: iter=    35 ; resid.=  7.09330085149549E-04
(PID.TID 0000.0001)  cg2d: iter=    36 ; resid.=  5.88474303302771E-04
(PID.TID 0000.0001)  cg2d: iter=    37 ; resid.=  5.04904041318365E-04
(PID.TID 0000.0001)  cg2d: iter=    38 ; resid.=  4.25986120385582E-04
(PID.TID 0000.0001)  cg2d: iter=    39 ; resid.=  3.79708046197415E-04
(PID.TID 0000.0001)  cg2d: iter=    40 ; resid.=  3.34747765230193E-04
(PID.TID 0000.0001)  cg2d: iter=    41 ; resid.=  2.70564159572009E-04
(PID.TID 0000.0001)  cg2d: iter=    42 ; resid.=  2.57492604996976E-04
(PID.TID 0000.0001)  cg2d: iter=    43 ; resid.=  2.18634833924984E-04
(PID.TID 0000.0001)  cg2d: iter=    44 ; resid.=  1.81289307337384E-04
(PID.TID 0000.0001)  cg2d: iter=    45 ; resid.=  1.53904877638150E-04
(PID.TID 0000.0001)  cg2d: iter=    46 ; resid.=  1.29158327086777E-04
(PID.TID 0000.0001)  cg2d: iter=    47 ; resid.=  1.05985466661730E-04
(PID.TID 0000.0001)  cg2d: iter=    48 ; resid.=  8.45903515843821E-05
(PID.TID 0000.0001)  cg2d: iter=    49 ; resid.=  6.27354776894697E-05
(PID.TID 0000.0001)  cg2d: iter=    50 ; resid.=  4.69703601195127E-05
(PID.TID 0000.0001)  cg2d: iter=    51 ; resid.=  3.40437557944524E-05
(PID.TID 0000.0001)  cg2d: iter=    52 ; resid.=  2.46209816588548E-05
(PID.TID 0000.0001)  cg2d: iter=    53 ; resid.=  1.76924021570244E-05
(PID.TID 0000.0001)  cg2d: iter=    54 ; resid.=  1.39245613468956E-05
(PID.TID 0000.0001)  cg2d: iter=    55 ; resid.=  1.08697317020972E-05
(PID.TID 0000.0001)  cg2d: iter=    56 ; resid.=  9.35843713233377E-06
(PID.TID 0000.0001)  cg2d: iter=    57 ; resid.=  8.22139439846504E-06
(PID.TID 0000.0001)  cg2d: iter=    58 ; resid.=  6.41285024347554E-06
(PID.TID 0000.0001)  cg2d: iter=    59 ; resid.=  5.29162406986069E-06
(PID.TID 0000.0001)  cg2d: iter=    60 ; resid.=  4.55723999491219E-06
(PID.TID 0000.0001)  cg2d: iter=    61 ; resid.=  3.71613091127686E-06
(PID.TID 0000.0001)  cg2d: iter=    62 ; resid.=  2.94812188468722E-06
(PID.TID 0000.0001)  cg2d: iter=    63 ; resid.=  2.49264777493485E-06
(PID.TID 0000.0001)  cg2d: iter=    64 ; resid.=  2.34970317121008E-06
(PID.TID 0000.0001)  cg2d: iter=    65 ; resid.=  1.90135476432550E-06
(PID.TID 0000.0001)  cg2d: iter=    66 ; resid.=  1.40268205536534E-06
(PID.TID 0000.0001)  cg2d: iter=    67 ; resid.=  1.11018386816364E-06
(PID.TID 0000.0001)  cg2d: iter=    68 ; resid.=  9.52217061637750E-07
(PID.TID 0000.0001)  cg2d: iter=    69 ; resid.=  7.82756464138495E-07
(PID.TID 0000.0001)  cg2d: iter=    70 ; resid.=  6.89949079785965E-07
(PID.TID 0000.0001)  cg2d: iter=    71 ; resid.=  6.13830930632308E-07
(PID.TID 0000.0001)  cg2d: iter=    72 ; resid.=  5.08115085607434E-07
(PID.TID 0000.0001)  cg2d: iter=    73 ; resid.=  4.18420383716096E-07
(PID.TID 0000.0001)  cg2d: iter=    74 ; resid.=  3.58857132404368E-07
(PID.TID 0000.0001)  cg2d: iter=    75 ; resid.=  2.84288830684927E-07
(PID.TID 0000.0001)  cg2d: iter=    76 ; resid.=  2.32183879083004E-07
(PID.TID 0000.0001)  cg2d: iter=    77 ; resid.=  1.94795608227734E-07
(PID.TID 0000.0001)  cg2d: iter=    78 ; resid.=  1.63811877892555E-07
(PID.TID 0000.0001)  cg2d: iter=    79 ; resid.=  1.31320071624407E-07
(PID.TID 0000.0001)  cg2d: iter=    80 ; resid.=  1.04307222028153E-07
(PID.TID 0000.0001)  cg2d: iter=    81 ; resid.=  9.66000108217404E-08
(PID.TID 0000.0001)  cg2d: iter=    82 ; resid.=  8.28743957414333E-08
(PID.TID 0000.0001)  cg2d: iter=    83 ; resid.=  6.74932716021474E-08
(PID.TID 0000.0001)  cg2d: iter=    84 ; resid.=  5.23104683491723E-08
(PID.TID 0000.0001)  cg2d: iter=    85 ; resid.=  4.44861253248754E-08
(PID.TID 0000.0001)  cg2d: iter=    86 ; resid.=  3.67259039074848E-08
(PID.TID 0000.0001)  cg2d: iter=    87 ; resid.=  2.73341760018783E-08
(PID.TID 0000.0001)  cg2d: iter=    88 ; resid.=  1.95095407360427E-08
(PID.TID 0000.0001)  cg2d: iter=    89 ; resid.=  1.52276522898895E-08
(PID.TID 0000.0001)  cg2d: iter=    90 ; resid.=  1.21405319055517E-08
(PID.TID 0000.0001)  cg2d: iter=    91 ; resid.=  9.47166040597557E-09
(PID.TID 0000.0001)  cg2d: iter=    92 ; resid.=  7.59282073462704E-09
(PID.TID 0000.0001)  cg2d: iter=    93 ; resid.=  6.00184111196721E-09
(PID.TID 0000.0001)  cg2d: iter=    94 ; resid.=  5.22467237690262E-09
(PID.TID 0000.0001)  cg2d: iter=    95 ; resid.=  4.72097354273395E-09
(PID.TID 0000.0001)  cg2d: iter=    96 ; resid.=  3.98663602213957E-09
(PID.TID 0000.0001)  cg2d: iter=    97 ; resid.=  3.00246027149848E-09
(PID.TID 0000.0001)  cg2d: iter=    98 ; resid.=  2.27961177049996E-09
(PID.TID 0000.0001)  cg2d: iter=    99 ; resid.=  1.81008205014226E-09
(PID.TID 0000.0001)  cg2d: iter=   100 ; resid.=  1.48471297407889E-09
(PID.TID 0000.0001)  cg2d: iter=   101 ; resid.=  1.18696271762920E-09
(PID.TID 0000.0001)  cg2d: iter=   102 ; resid.=  9.60556190084290E-10
(PID.TID 0000.0001)  cg2d: iter=   103 ; resid.=  7.22399423101042E-10
(PID.TID 0000.0001)  cg2d: iter=   104 ; resid.=  5.36832702936926E-10
(PID.TID 0000.0001)  cg2d: iter=   105 ; resid.=  3.94596517281134E-10
(PID.TID 0000.0001)  cg2d: iter=   106 ; resid.=  3.00588871112969E-10
(PID.TID 0000.0001)  cg2d: iter=   107 ; resid.=  2.14743965357326E-10
(PID.TID 0000.0001)  cg2d: iter=   108 ; resid.=  1.65333319253967E-10
(PID.TID 0000.0001)  cg2d: iter=   109 ; resid.=  1.35502872808320E-10
(PID.TID 0000.0001)  cg2d: iter=   110 ; resid.=  1.18394264711046E-10
(PID.TID 0000.0001)  cg2d: iter=   111 ; resid.=  1.00012624740463E-10
(PID.TID 0000.0001)  cg2d: iter=   112 ; resid.=  8.08324419818440E-11
(PID.TID 0000.0001)  cg2d: iter=   113 ; resid.=  5.75044173350799E-11
(PID.TID 0000.0001)  cg2d: iter=   114 ; resid.=  3.86378857540481E-11
(PID.TID 0000.0001)  cg2d: iter=   115 ; resid.=  2.70983359772420E-11
(PID.TID 0000.0001)  cg2d: iter=   116 ; resid.=  2.04187604823607E-11
(PID.TID 0000.0001)  cg2d: iter=   117 ; resid.=  1.49082482056488E-11
(PID.TID 0000.0001)  cg2d: iter=   118 ; resid.=  1.07834873301975E-11
(PID.TID 0000.0001)  cg2d: iter=   119 ; resid.=  7.59756909640140E-12
(PID.TID 0000.0001)  cg2d: iter=   120 ; resid.=  5.50785153454916E-12
(PID.TID 0000.0001)  cg2d: iter=   121 ; resid.=  4.35570402917539E-12
(PID.TID 0000.0001)  cg2d: iter=   122 ; resid.=  3.50464079684862E-12
(PID.TID 0000.0001)  cg2d: iter=   123 ; resid.=  2.89087083825466E-12
(PID.TID 0000.0001)  cg2d: iter=   124 ; resid.=  2.34750412675334E-12
(PID.TID 0000.0001)  cg2d: iter=   125 ; resid.=  1.89008904082198E-12
(PID.TID 0000.0001)  cg2d: iter=   126 ; resid.=  1.55251121532563E-12
(PID.TID 0000.0001)  cg2d: iter=   127 ; resid.=  1.08350572814928E-12
(PID.TID 0000.0001)  cg2d: iter=   128 ; resid.=  8.05555989616932E-13
(PID.TID 0000.0001)  cg2d: iter=   129 ; resid.=  6.33924264531219E-13
(PID.TID 0000.0001)  cg2d: iter=   130 ; resid.=  4.95795470993357E-13
(PID.TID 0000.0001)  cg2d: iter=   131 ; resid.=  3.68576138788495E-13
(PID.TID 0000.0001)  cg2d: iter=   132 ; resid.=  2.55733395815258E-13
(PID.TID 0000.0001)  cg2d: iter=   133 ; resid.=  1.83631701105025E-13
(PID.TID 0000.0001)  cg2d: iter=   134 ; resid.=  1.40130209455564E-13
(PID.TID 0000.0001)  cg2d: iter=   135 ; resid.=  9.83767320907104E-14
DEBUG_STATS_RL:    cg2d_x (SOLVE_FOR_PRESSURE)  min= -2.11229386933585E+01
DEBUG_STATS_RL:    cg2d_x (SOLVE_FOR_PRESSURE)  max=  8.80831208236082E+00
DEBUG_STATS_RL:    cg2d_x (SOLVE_FOR_PRESSURE) mean= -1.67649646625859E+00
DEBUG_STATS_RL:    cg2d_x (SOLVE_FOR_PRESSURE) S.D.=  6.46894623411406E+00
(PID.TID 0000.0001)      cg2d_init_res =   6.26772692619193E-01
(PID.TID 0000.0001)      cg2d_iters(min,last) =      -1     135
(PID.TID 0000.0001)      cg2d_last_res =   9.83767320907104E-14
(PID.TID 0000.0001) // =======================================================
(PID.TID 0000.0001) // Begin MONITOR dynamic field statistics
(PID.TID 0000.0001) // =======================================================
(PID.TID 0000.0001) %MON time_tsnumber                =                    16
(PID.TID 0000.0001) %MON time_secondsf                =   1.3824000000000E+06
(PID.TID 0000.0001) %MON dynstat_eta_max              =   8.9789113989405E-01
(PID.TID 0000.0001) %MON dynstat_eta_min              =  -2.1532047597715E+00
(PID.TID 0000.0001) %MON dynstat_eta_mean             =  -1.1348554071076E-03
(PID.TID 0000.0001) %MON dynstat_eta_sd               =   5.6787110593938E-01
(PID.TID 0000.0001) %MON dynstat_eta_del2             =   1.7325065732116E-03
(PID.TID 0000.0001) %MON dynstat_uvel_max             =   1.8032111307149E-01
(PID.TID 0000.0001) %MON dynstat_uvel_min             =  -1.1053353794342E-01
(PID.TID 0000.0001) %MON dynstat_uvel_mean            =  -7.8382185202126E-04
(PID.TID 0000.0001) %MON dynstat_uvel_sd              =   1.6235832482606E-02
(PID.TID 0000.0001) %MON dynstat_uvel_del2            =   9.9752792820891E-05
(PID.TID 0000.0001) %MON dynstat_vvel_max             =   1.2523926192762E-01
(PID.TID 0000.0001) %MON dynstat_vvel_min             =  -1.1780054548360E-01
(PID.TID 0000.0001) %MON dynstat_vvel_mean            =   3.4145722702402E-05
(PID.TID 0000.0001) %MON dynstat_vvel_sd              =   9.2057679644715E-03
(PID.TID 0000.0001) %MON dynstat_vvel_del2            =   8.8220162369942E-05
(PID.TID 0000.0001) %MON dynstat_wvel_max             =   1.9487853819402E-04
(PID.TID 0000.0001) %MON dynstat_wvel_min             =  -1.9998779106591E-04
(PID.TID 0000.0001) %MON dynstat_wvel_mean            =   9.9302540507775E-24
(PID.TID 0000.0001) %MON dynstat_wvel_sd              =   1.9620695979249E-05
(PID.TID 0000.0001) %MON dynstat_wvel_del2            =   2.1915978170569E-07
(PID.TID 0000.0001) %MON dynstat_theta_max            =   2.9841098574719E+01
(PID.TID 0000.0001) %MON dynstat_theta_min            =  -2.0231388525339E+00
(PID.TID 0000.0001) %MON dynstat_theta_mean           =   3.6298718255651E+00
(PID.TID 0000.0001) %MON dynstat_theta_sd             =   4.4153375083572E+00
(PID.TID 0000.0001) %MON dynstat_theta_del2           =   4.8905890213556E-03
(PID.TID 0000.0001) %MON dynstat_salt_max             =   3.7448502394458E+01
(PID.TID 0000.0001) %MON dynstat_salt_min             =   2.9755098429228E+01
(PID.TID 0000.0001) %MON dynstat_salt_mean            =   3.4727971601677E+01
(PID.TID 0000.0001) %MON dynstat_salt_sd              =   2.9621768227735E-01
(PID.TID 0000.0001) %MON dynstat_salt_del2            =   1.0119888657854E-03
(PID.TID 0000.0001) %MON dynstat_sst_max              =   2.9841098574719E+01
(PID.TID 0000.0001) %MON dynstat_sst_min              =  -2.0231388525339E+00
(PID.TID 0000.0001) %MON dynstat_sst_mean             =   1.8673758435493E+01
(PID.TID 0000.0001) %MON dynstat_sst_sd               =   9.0560759196617E+00
(PID.TID 0000.0001) %MON dynstat_sst_del2             =   2.6249774740637E-02
(PID.TID 0000.0001) %MON dynstat_sss_max              =   3.7439283283841E+01
(PID.TID 0000.0001) %MON dynstat_sss_min              =   2.9755098429228E+01
(PID.TID 0000.0001) %MON dynstat_sss_mean             =   3.4864660099450E+01
(PID.TID 0000.0001) %MON dynstat_sss_sd               =   9.7031379448502E-01
(PID.TID 0000.0001) %MON dynstat_sss_del2             =   7.9930526059072E-03
(PID.TID 0000.0001) %MON forcing_qnet_max             =   4.4161361694336E+02
(PID.TID 0000.0001) %MON forcing_qnet_min             =  -1.8132531738281E+02
(PID.TID 0000.0001) %MON forcing_qnet_mean            =  -1.6512526001044E+01
(PID.TID 0000.0001) %MON forcing_qnet_sd              =   1.0987288293460E+02
(PID.TID 0000.0001) %MON forcing_qnet_del2            =   1.0245701543512E+00
(PID.TID 0000.0001) %MON forcing_qsw_max              =   0.0000000000000E+00
(PID.TID 0000.0001) %MON forcing_qsw_min              =   0.0000000000000E+00
(PID.TID 0000.0001) %MON forcing_qsw_mean             =   0.0000000000000E+00
(PID.TID 0000.0001) %MON forcing_qsw_sd               =   0.0000000000000E+00
(PID.TID 0000.0001) %MON forcing_qsw_del2             =   0.0000000000000E+00
(PID.TID 0000.0001) %MON forcing_empmr_max            =   8.2174238968946E-05
(PID.TID 0000.0001) %MON forcing_empmr_min            =  -7.6155956207913E-05
(PID.TID 0000.0001) %MON forcing_empmr_mean           =   9.2293706211063E-07
(PID.TID 0000.0001) %MON forcing_empmr_sd             =   2.8800050217957E-05
(PID.TID 0000.0001) %MON forcing_empmr_del2           =   3.6757632549621E-07
(PID.TID 0000.0001) %MON forcing_fu_max               =   2.7877888083458E-01
(PID.TID 0000.0001) %MON forcing_fu_min               =  -1.7088057100773E-01
(PID.TID 0000.0001) %MON forcing_fu_mean              =   1.6001735152566E-02
(PID.TID 0000.0001) %MON forcing_fu_sd                =   9.1062350670783E-02
(PID.TID 0000.0001) %MON forcing_fu_del2              =   7.2483493833855E-04
(PID.TID 0000.0001) %MON forcing_fv_max               =   2.3312132060528E-01
(PID.TID 0000.0001) %MON forcing_fv_min               =  -1.7813690006733E-01
(PID.TID 0000.0001) %MON forcing_fv_mean              =  -5.2588977395051E-03
(PID.TID 0000.0001) %MON forcing_fv_sd                =   4.8248606070107E-02
(PID.TID 0000.0001) %MON forcing_fv_del2              =   4.9948324922575E-04
(PID.TID 0000.0001) %MON trAdv_CFL_u_max              =   5.1058562823205E-02
(PID.TID 0000.0001) %MON trAdv_CFL_v_max              =   2.3845166250675E-02
(PID.TID 0000.0001) %MON trAdv_CFL_w_max              =   6.4455215130760E-02
(PID.TID 0000.0001) %MON advcfl_uvel_max              =   4.9314855910256E-02
(PID.TID 0000.0001) %MON advcfl_vvel_max              =   2.4331979996260E-02
(PID.TID 0000.0001) %MON advcfl_wvel_max              =   5.7792547444456E-02
(PID.TID 0000.0001) %MON advcfl_W_hf_max              =   6.3812604469920E-02
(PID.TID 0000.0001) %MON pe_b_mean                    =   4.1265059734969E-04
(PID.TID 0000.0001) %MON ke_max                       =   1.6708260997203E-02
(PID.TID 0000.0001) %MON ke_mean                      =   1.5808440615777E-04
(PID.TID 0000.0001) %MON ke_vol                       =   1.3226782436723E+18
(PID.TID 0000.0001) %MON vort_r_min                   =  -3.9194831242395E-07
(PID.TID 0000.0001) %MON vort_r_max                   =   4.1842358626424E-07
(PID.TID 0000.0001) %MON vort_a_mean                  =  -2.5274807251031E-05
(PID.TID 0000.0001) %MON vort_a_sd                    =   7.3604280419137E-05
(PID.TID 0000.0001) %MON vort_p_mean                  =  -3.1845655614986E-05
(PID.TID 0000.0001) %MON vort_p_sd                    =   1.3162231744826E-04
(PID.TID 0000.0001) %MON surfExpan_theta_mean         =  -2.2873086301193E-07
(PID.TID 0000.0001) %MON surfExpan_salt_mean          =   5.7192286581114E-08
(PID.TID 0000.0001) // =======================================================
(PID.TID 0000.0001) // End MONITOR dynamic field statistics
(PID.TID 0000.0001) // =======================================================
 EXTERNAL_FIELDS_LOAD,        16 : iP,iLd,i0,i1=    1    2    1    2 ; Wght=  0.9666666667  0.0333333333
 EXTERNAL_FIELDS_LOAD: (fu0,1),fu,fv= -3.5633E-02 -1.4435E-02 -3.4926E-02 -5.5936E-02
 EXTERNAL_FIELDS_LOAD: SST,SSS,Q,E-P=  9.0875E-01  3.4705E+01  2.6493E+02  1.1528E-05
DEBUG_STATS_RL:          Uvel (THERMODYNAMICS)  min= -1.10533537943422E-01
DEBUG_STATS_RL:          Uvel (THERMODYNAMICS)  max=  1.80321113071486E-01
DEBUG_STATS_RL:          Uvel (THERMODYNAMICS) mean=  3.96654586120271E-03
DEBUG_STATS_RL:          Uvel (THERMODYNAMICS) S.D.=  2.48169326286578E-02
DEBUG_STATS_RL:          Vvel (THERMODYNAMICS)  min= -1.17800545483601E-01
DEBUG_STATS_RL:          Vvel (THERMODYNAMICS)  max=  1.25239261927618E-01
DEBUG_STATS_RL:          Vvel (THERMODYNAMICS) mean=  9.12283664582969E-04
DEBUG_STATS_RL:          Vvel (THERMODYNAMICS) S.D.=  1.46776263300929E-02
DEBUG_STATS_RL:          Wvel (THERMODYNAMICS)  min= -1.99987791065909E-04
DEBUG_STATS_RL:          Wvel (THERMODYNAMICS)  max=  1.94878538194025E-04
DEBUG_STATS_RL:          Wvel (THERMODYNAMICS) mean=  1.08691420166552E-07
DEBUG_STATS_RL:          Wvel (THERMODYNAMICS) S.D.=  1.73140046385751E-05
DEBUG_STATS_RL:         Theta (THERMODYNAMICS)  min= -2.02137844386079E+00
DEBUG_STATS_RL:         Theta (THERMODYNAMICS)  max=  2.98412007113556E+01
DEBUG_STATS_RL:         Theta (THERMODYNAMICS) mean=  3.21847921442090E+00
DEBUG_STATS_RL:         Theta (THERMODYNAMICS) S.D.=  5.85584399492153E+00
DEBUG_STATS_RL:          Salt (THERMODYNAMICS)  min=  9.99999999999999E-03
DEBUG_STATS_RL:          Salt (THERMODYNAMICS)  max=  3.74491637391768E+01
DEBUG_STATS_RL:          Salt (THERMODYNAMICS) mean=  1.88552006378867E+01
DEBUG_STATS_RL:          Salt (THERMODYNAMICS) S.D.=  1.73006801652366E+01
DEBUG_STATS_RL:         GtNm1 (THERMODYNAMICS)  min= -3.23583665003703E-06
DEBUG_STATS_RL:         GtNm1 (THERMODYNAMICS)  max=  2.53680330512944E-06
DEBUG_STATS_RL:         GtNm1 (THERMODYNAMICS) mean=  9.67275812025273E-09
DEBUG_STATS_RL:         GtNm1 (THERMODYNAMICS) S.D.=  2.40216337958492E-07
DEBUG_STATS_RL:         GsNm1 (THERMODYNAMICS)  min= -7.93091104933085E-07
DEBUG_STATS_RL:         GsNm1 (THERMODYNAMICS)  max=  6.87428399550774E-07
DEBUG_STATS_RL:         GsNm1 (THERMODYNAMICS) mean=  3.30574841000712E-11
DEBUG_STATS_RL:         GsNm1 (THERMODYNAMICS) S.D.=  2.11997399660526E-08
DEBUG_STATS_RL:                EtaN (DYNAMICS)  min= -2.15320475977149E+00
DEBUG_STATS_RL:                EtaN (DYNAMICS)  max=  8.97891139894048E-01
DEBUG_STATS_RL:                EtaN (DYNAMICS) mean= -1.70896683614535E-01
DEBUG_STATS_RL:                EtaN (DYNAMICS) S.D.=  6.59423673202247E-01
DEBUG_STATS_RL:                Uvel (DYNAMICS)  min= -1.10533537943422E-01
DEBUG_STATS_RL:                Uvel (DYNAMICS)  max=  1.80321113071486E-01
DEBUG_STATS_RL:                Uvel (DYNAMICS) mean=  3.96654586120271E-03
DEBUG_STATS_RL:                Uvel (DYNAMICS) S.D.=  2.48169326286578E-02
DEBUG_STATS_RL:                Vvel (DYNAMICS)  min= -1.17800545483601E-01
DEBUG_STATS_RL:                Vvel (DYNAMICS)  max=  1.25239261927618E-01
DEBUG_STATS_RL:                Vvel (DYNAMICS) mean=  9.12283664582969E-04
DEBUG_STATS_RL:                Vvel (DYNAMICS) S.D.=  1.46776263300929E-02
DEBUG_STATS_RL:                Wvel (DYNAMICS)  min= -1.99987791065909E-04
DEBUG_STATS_RL:                Wvel (DYNAMICS)  max=  1.94878538194025E-04
DEBUG_STATS_RL:                Wvel (DYNAMICS) mean=  1.08691420166552E-07
DEBUG_STATS_RL:                Wvel (DYNAMICS) S.D.=  1.73140046385751E-05
DEBUG_STATS_RL:               Theta (DYNAMICS)  min= -2.02137844386079E+00
DEBUG_STATS_RL:               Theta (DYNAMICS)  max=  2.98412007113556E+01
DEBUG_STATS_RL:               Theta (DYNAMICS) mean=  3.21847921442090E+00
DEBUG_STATS_RL:               Theta (DYNAMICS) S.D.=  5.85584399492153E+00
DEBUG_STATS_RL:                Salt (DYNAMICS)  min=  9.99999999999999E-03
DEBUG_STATS_RL:                Salt (DYNAMICS)  max=  3.74491637391768E+01
DEBUG_STATS_RL:                Salt (DYNAMICS) mean=  1.88552006378867E+01
DEBUG_STATS_RL:                Salt (DYNAMICS) S.D.=  1.73006801652366E+01
DEBUG_STATS_RL:                  Gu (DYNAMICS)  min= -1.17002789889155E-01
DEBUG_STATS_RL:                  Gu (DYNAMICS)  max=  1.81051712232221E-01
DEBUG_STATS_RL:                  Gu (DYNAMICS) mean=  3.31588180519751E-03
DEBUG_STATS_RL:                  Gu (DYNAMICS) S.D.=  2.47465640470701E-02
DEBUG_STATS_RL:                  Gv (DYNAMICS)  min= -1.14650948312249E-01
DEBUG_STATS_RL:                  Gv (DYNAMICS)  max=  1.20655750148216E-01
DEBUG_STATS_RL:                  Gv (DYNAMICS) mean=  2.90112105116878E-03
DEBUG_STATS_RL:                  Gv (DYNAMICS) S.D.=  1.63898475139427E-02
DEBUG_STATS_RL:               GuNm1 (DYNAMICS)  min= -6.70061882410668E-06
DEBUG_STATS_RL:               GuNm1 (DYNAMICS)  max=  7.46626875649966E-06
DEBUG_STATS_RL:               GuNm1 (DYNAMICS) mean= -1.84543990937395E-08
DEBUG_STATS_RL:               GuNm1 (DYNAMICS) S.D.=  1.10790961468593E-06
DEBUG_STATS_RL:               GvNm1 (DYNAMICS)  min= -8.52404106785016E-06
DEBUG_STATS_RL:               GvNm1 (DYNAMICS)  max=  1.68989766454026E-05
DEBUG_STATS_RL:               GvNm1 (DYNAMICS) mean=  7.71894148658533E-07
DEBUG_STATS_RL:               GvNm1 (DYNAMICS) S.D.=  2.56991670339603E-06
DEBUG_STATS_RL:               GtNm1 (DYNAMICS)  min= -3.23583665003703E-06
DEBUG_STATS_RL:               GtNm1 (DYNAMICS)  max=  2.53680330512944E-06
DEBUG_STATS_RL:               GtNm1 (DYNAMICS) mean=  9.67275812025273E-09
DEBUG_STATS_RL:               GtNm1 (DYNAMICS) S.D.=  2.40216337958492E-07
DEBUG_STATS_RL:               GsNm1 (DYNAMICS)  min= -7.93091104933085E-07
DEBUG_STATS_RL:               GsNm1 (DYNAMICS)  max=  6.87428399550774E-07
DEBUG_STATS_RL:               GsNm1 (DYNAMICS) mean=  3.30574841000712E-11
DEBUG_STATS_RL:               GsNm1 (DYNAMICS) S.D.=  2.11997399660526E-08
DEBUG_STATS_RL:    cg2d_b (SOLVE_FOR_PRESSURE)  min= -1.85377002539616E+04
DEBUG_STATS_RL:    cg2d_b (SOLVE_FOR_PRESSURE)  max=  1.39163013771011E+04
DEBUG_STATS_RL:    cg2d_b (SOLVE_FOR_PRESSURE) mean=  1.16157315150680E+00
DEBUG_STATS_RL:    cg2d_b (SOLVE_FOR_PRESSURE) S.D.=  3.22195345457019E+03
 cg2d: Sum(rhs),rhsMax =   1.45058006597327E-01  1.21760578599550E+00
(PID.TID 0000.0001)  cg2d: iter=     1 ; resid.=  2.68802018110425E-01
(PID.TID 0000.0001)  cg2d: iter=     2 ; resid.=  2.65810982589441E-01
(PID.TID 0000.0001)  cg2d: iter=     3 ; resid.=  2.33394293096045E-01
(PID.TID 0000.0001)  cg2d: iter=     4 ; resid.=  1.65218852760552E-01
(PID.TID 0000.0001)  cg2d: iter=     5 ; resid.=  1.60992590880438E-01
(PID.TID 0000.0001)  cg2d: iter=     6 ; resid.=  1.34605993835899E-01
(PID.TID 0000.0001)  cg2d: iter=     7 ; resid.=  1.23630257250787E-01
(PID.TID 0000.0001)  cg2d: iter=     8 ; resid.=  1.12089446880663E-01
(PID.TID 0000.0001)  cg2d: iter=     9 ; resid.=  1.08501003735367E-01
(PID.TID 0000.0001)  cg2d: iter=    10 ; resid.=  9.88319989278454E-02
(PID.TID 0000.0001)  cg2d: iter=    11 ; resid.=  8.14023617693892E-02
(PID.TID 0000.0001)  cg2d: iter=    12 ; resid.=  6.03557537549443E-02
(PID.TID 0000.0001)  cg2d: iter=    13 ; resid.=  4.54029887014824E-02
(PID.TID 0000.0001)  cg2d: iter=    14 ; resid.=  3.50844235194948E-02
(PID.TID 0000.0001)  cg2d: iter=    15 ; resid.=  2.63299347468123E-02
(PID.TID 0000.0001)  cg2d: iter=    16 ; resid.=  2.29861670201572E-02
(PID.TID 0000.0001)  cg2d: iter=    17 ; resid.=  2.17097033509676E-02
(PID.TID 0000.0001)  cg2d: iter=    18 ; resid.=  1.72665919953514E-02
(PID.TID 0000.0001)  cg2d: iter=    19 ; resid.=  1.30371809386073E-02
(PID.TID 0000.0001)  cg2d: iter=    20 ; resid.=  9.54453278495741E-03
(PID.TID 0000.0001)  cg2d: iter=    21 ; resid.=  8.00788066338361E-03
(PID.TID 0000.0001)  cg2d: iter=    22 ; resid.=  7.48956566147594E-03
(PID.TID 0000.0001)  cg2d: iter=    23 ; resid.=  6.55950831630770E-03
(PID.TID 0000.0001)  cg2d: iter=    24 ; resid.=  6.45995049761755E-03
(PID.TID 0000.0001)  cg2d: iter=    25 ; resid.=  5.57869615750577E-03
(PID.TID 0000.0001)  cg2d: iter=    26 ; resid.=  4.77094400639166E-03
(PID.TID 0000.0001)  cg2d: iter=    27 ; resid.=  3.97733975626681E-03
(PID.TID 0000.0001)  cg2d: iter=    28 ; resid.=  3.27268272586402E-03
(PID.TID 0000.0001)  cg2d: iter=    29 ; resid.=  2.47656699427172E-03
(PID.TID 0000.0001)  cg2d: iter=    30 ; resid.=  2.15085314308324E-03
(PID.TID 0000.0001)  cg2d: iter=    31 ; resid.=  2.03056775379603E-03
(PID.TID 0000.0001)  cg2d: iter=    32 ; resid.=  1.52478799904275E-03
(PID.TID 0000.0001)  cg2d: iter=    33 ; resid.=  1.27554957007353E-03
(PID.TID 0000.0001)  cg2d: iter=    34 ; resid.=  1.15769429335500E-03
(PID.TID 0000.0001)  cg2d: iter=    35 ; resid.=  9.14502623350415E-04
(PID.TID 0000.0001)  cg2d: iter=    36 ; resid.=  7.13457661939666E-04
(PID.TID 0000.0001)  cg2d: iter=    37 ; resid.=  5.73056383033972E-04
(PID.TID 0000.0001)  cg2d: iter=    38 ; resid.=  4.74095192724287E-04
(PID.TID 0000.0001)  cg2d: iter=    39 ; resid.=  4.04996708143024E-04
(PID.TID 0000.0001)  cg2d: iter=    40 ; resid.=  3.54450503779582E-04
(PID.TID 0000.0001)  cg2d: iter=    41 ; resid.=  2.79988322729491E-04
(PID.TID 0000.0001)  cg2d: iter=    42 ; resid.=  2.51959770692015E-04
(PID.TID 0000.0001)  cg2d: iter=    43 ; resid.=  2.03084784019946E-04
(PID.TID 0000.0001)  cg2d: iter=    44 ; resid.=  1.69632909933814E-04
(PID.TID 0000.0001)  cg2d: iter=    45 ; resid.=  1.45129770456387E-04
(PID.TID 0000.0001)  cg2d: iter=    46 ; resid.=  1.21923305154266E-04
(PID.TID 0000.0001)  cg2d: iter=    47 ; resid.=  1.00424079519149E-04
(PID.TID 0000.0001)  cg2d: iter=    48 ; resid.=  7.99171398540089E-05
(PID.TID 0000.0001)  cg2d: iter=    49 ; resid.=  5.87502575159866E-05
(PID.TID 0000.0001)  cg2d: iter=    50 ; resid.=  4.65795985161897E-05
(PID.TID 0000.0001)  cg2d: iter=    51 ; resid.=  3.57654323250412E-05
(PID.TID 0000.0001)  cg2d: iter=    52 ; resid.=  2.64360551652543E-05
(PID.TID 0000.0001)  cg2d: iter=    53 ; resid.=  2.04923909496482E-05
(PID.TID 0000.0001)  cg2d: iter=    54 ; resid.=  1.78361033955037E-05
(PID.TID 0000.0001)  cg2d: iter=    55 ; resid.=  1.55463173368965E-05
(PID.TID 0000.0001)  cg2d: iter=    56 ; resid.=  1.44938546190761E-05
(PID.TID 0000.0001)  cg2d: iter=    57 ; resid.=  1.31481276131208E-05
(PID.TID 0000.0001)  cg2d: iter=    58 ; resid.=  1.04242467758301E-05
(PID.TID 0000.0001)  cg2d: iter=    59 ; resid.=  8.45582644949100E-06
(PID.TID 0000.0001)  cg2d: iter=    60 ; resid.=  6.95583907889649E-06
(PID.TID 0000.0001)  cg2d: iter=    61 ; resid.=  5.58478706505128E-06
(PID.TID 0000.0001)  cg2d: iter=    62 ; resid.=  4.42961276296765E-06
(PID.TID 0000.0001)  cg2d: iter=    63 ; resid.=  3.79866717445530E-06
(PID.TID 0000.0001)  cg2d: iter=    64 ; resid.=  3.41008746230164E-06
(PID.TID 0000.0001)  cg2d: iter=    65 ; resid.=  2.67765285817437E-06
(PID.TID 0000.0001)  cg2d: iter=    66 ; resid.=  1.98160905241112E-06
(PID.TID 0000.0001)  cg2d: iter=    67 ; resid.=  1.68041487429803E-06
(PID.TID 0000.0001)  cg2d: iter=    68 ; resid.=  1.47586707216908E-06
(PID.TID 0000.0001)  cg2d: iter=    69 ; resid.=  1.26613086553712E-06
(PID.TID 0000.0001)  cg2d: iter=    70 ; resid.=  1.14197341343409E-06
(PID.TID 0000.0001)  cg2d: iter=    71 ; resid.=  9.83903732288408E-07
(PID.TID 0000.0001)  cg2d: iter=    72 ; resid.=  7.87572267608638E-07
(PID.TID 0000.0001)  cg2d: iter=    73 ; resid.=  6.41556614449121E-07
(PID.TID 0000.0001)  cg2d: iter=    74 ; resid.=  5.24372797651451E-07
(PID.TID 0000.0001)  cg2d: iter=    75 ; resid.=  4.06801629788487E-07
(PID.TID 0000.0001)  cg2d: iter=    76 ; resid.=  3.15185880244330E-07
(PID.TID 0000.0001)  cg2d: iter=    77 ; resid.=  2.55822494760392E-07
(PID.TID 0000.0001)  cg2d: iter=    78 ; resid.=  1.96124190644710E-07
(PID.TID 0000.0001)  cg2d: iter=    79 ; resid.=  1.44327736624054E-07
(PID.TID 0000.0001)  cg2d: iter=    80 ; resid.=  1.09263089969294E-07
(PID.TID 0000.0001)  cg2d: iter=    81 ; resid.=  9.75136813969482E-08
(PID.TID 0000.0001)  cg2d: iter=    82 ; resid.=  7.80285906199312E-08
(PID.TID 0000.0001)  cg2d: iter=    83 ; resid.=  5.92699186471708E-08
(PID.TID 0000.0001)  cg2d: iter=    84 ; resid.=  4.47943379967827E-08
(PID.TID 0000.0001)  cg2d: iter=    85 ; resid.=  3.73439464693124E-08
(PID.TID 0000.0001)  cg2d: iter=    86 ; resid.=  2.97375668885227E-08
(PID.TID 0000.0001)  cg2d: iter=    87 ; resid.=  2.29512673672407E-08
(PID.TID 0000.0001)  cg2d: iter=    88 ; resid.=  1.62287346158297E-08
(PID.TID 0000.0001)  cg2d: iter=    89 ; resid.=  1.22896871623421E-08
(PID.TID 0000.0001)  cg2d: iter=    90 ; resid.=  9.75977439778669E-09
(PID.TID 0000.0001)  cg2d: iter=    91 ; resid.=  7.62475811593585E-09
(PID.TID 0000.0001)  cg2d: iter=    92 ; resid.=  5.80031997658520E-09
(PID.TID 0000.0001)  cg2d: iter=    93 ; resid.=  4.23404393571254E-09
(PID.TID 0000.0001)  cg2d: iter=    94 ; resid.=  3.58761932155954E-09
(PID.TID 0000.0001)  cg2d: iter=    95 ; resid.=  3.29770845844878E-09
(PID.TID 0000.0001)  cg2d: iter=    96 ; resid.=  2.76288736018603E-09
(PID.TID 0000.0001)  cg2d: iter=    97 ; resid.=  2.07734402281214E-09
(PID.TID 0000.0001)  cg2d: iter=    98 ; resid.=  1.57775848046778E-09
(PID.TID 0000.0001)  cg2d: iter=    99 ; resid.=  1.21106627771062E-09
(PID.TID 0000.0001)  cg2d: iter=   100 ; resid.=  9.77647899673611E-10
(PID.TID 0000.0001)  cg2d: iter=   101 ; resid.=  8.27613674785743E-10
(PID.TID 0000.0001)  cg2d: iter=   102 ; resid.=  7.13163428096029E-10
(PID.TID 0000.0001)  cg2d: iter=   103 ; resid.=  5.75319142682140E-10
(PID.TID 0000.0001)  cg2d: iter=   104 ; resid.=  4.76241688889291E-10
(PID.TID 0000.0001)  cg2d: iter=   105 ; resid.=  3.88108886682173E-10
(PID.TID 0000.0001)  cg2d: iter=   106 ; resid.=  3.13678315939142E-10
(PID.TID 0000.0001)  cg2d: iter=   107 ; resid.=  2.31431150998357E-10
(PID.TID 0000.0001)  cg2d: iter=   108 ; resid.=  1.83775520787379E-10
(PID.TID 0000.0001)  cg2d: iter=   109 ; resid.=  1.57858160390889E-10
(PID.TID 0000.0001)  cg2d: iter=   110 ; resid.=  1.38182744804202E-10
(PID.TID 0000.0001)  cg2d: iter=   111 ; resid.=  1.13007496888879E-10
(PID.TID 0000.0001)  cg2d: iter=   112 ; resid.=  8.50157476442603E-11
(PID.TID 0000.0001)  cg2d: iter=   113 ; resid.=  5.74339001779531E-11
(PID.TID 0000.0001)  cg2d: iter=   114 ; resid.=  3.74220177004513E-11
(PID.TID 0000.0001)  cg2d: iter=   115 ; resid.=  2.55870403223369E-11
(PID.TID 0000.0001)  cg2d: iter=   116 ; resid.=  1.88531537115339E-11
(PID.TID 0000.0001)  cg2d: iter=   117 ; resid.=  1.40475003951644E-11
(PID.TID 0000.0001)  cg2d: iter=   118 ; resid.=  1.07913778628451E-11
(PID.TID 0000.0001)  cg2d: iter=   119 ; resid.=  7.88873426082603E-12
(PID.TID 0000.0001)  cg2d: iter=   120 ; resid.=  5.97785051729180E-12
(PID.TID 0000.0001)  cg2d: iter=   121 ; resid.=  4.86639327095201E-12
(PID.TID 0000.0001)  cg2d: iter=   122 ; resid.=  3.95629916350237E-12
(PID.TID 0000.0001)  cg2d: iter=   123 ; resid.=  3.24407790383466E-12
(PID.TID 0000.0001)  cg2d: iter=   124 ; resid.=  2.57969778861656E-12
(PID.TID 0000.0001)  cg2d: iter=   125 ; resid.=  1.95829879411383E-12
(PID.TID 0000.0001)  cg2d: iter=   126 ; resid.=  1.49052911426658E-12
(PID.TID 0000.0001)  cg2d: iter=   127 ; resid.=  1.00304258410855E-12
(PID.TID 0000.0001)  cg2d: iter=   128 ; resid.=  7.05392858890600E-13
(PID.TID 0000.0001)  cg2d: iter=   129 ; resid.=  5.58956162267652E-13
(PID.TID 0000.0001)  cg2d: iter=   130 ; resid.=  4.42553807798040E-13
(PID.TID 0000.0001)  cg2d: iter=   131 ; resid.=  3.24127667508688E-13
(PID.TID 0000.0001)  cg2d: iter=   132 ; resid.=  2.17302603752328E-13
(PID.TID 0000.0001)  cg2d: iter=   133 ; resid.=  1.55162145071472E-13
(PID.TID 0000.0001)  cg2d: iter=   134 ; resid.=  1.24215586269678E-13
(PID.TID 0000.0001)  cg2d: iter=   135 ; resid.=  9.41519860776778E-14
DEBUG_STATS_RL:    cg2d_x (SOLVE_FOR_PRESSURE)  min= -1.73882095106322E+01
DEBUG_STATS_RL:    cg2d_x (SOLVE_FOR_PRESSURE)  max=  8.89730804591922E+00
DEBUG_STATS_RL:    cg2d_x (SOLVE_FOR_PRESSURE) mean= -1.64230857405379E+00
DEBUG_STATS_RL:    cg2d_x (SOLVE_FOR_PRESSURE) S.D.=  6.31875159192780E+00
(PID.TID 0000.0001)      cg2d_init_res =   5.91211808279475E-01
(PID.TID 0000.0001)      cg2d_iters(min,last) =      -1     135
(PID.TID 0000.0001)      cg2d_last_res =   9.41519860776778E-14
(PID.TID 0000.0001) // =======================================================
(PID.TID 0000.0001) // Begin MONITOR dynamic field statistics
(PID.TID 0000.0001) // =======================================================
(PID.TID 0000.0001) %MON time_tsnumber                =                    17
(PID.TID 0000.0001) %MON time_secondsf                =   1.4688000000000E+06
(PID.TID 0000.0001) %MON dynstat_eta_max              =   9.0696310355954E-01
(PID.TID 0000.0001) %MON dynstat_eta_min              =  -1.7724984210633E+00
(PID.TID 0000.0001) %MON dynstat_eta_mean             =  -1.2119575532812E-03
(PID.TID 0000.0001) %MON dynstat_eta_sd               =   5.6121266565195E-01
(PID.TID 0000.0001) %MON dynstat_eta_del2             =   1.7421965746036E-03
(PID.TID 0000.0001) %MON dynstat_uvel_max             =   1.7865240215191E-01
(PID.TID 0000.0001) %MON dynstat_uvel_min             =  -1.1612689695572E-01
(PID.TID 0000.0001) %MON dynstat_uvel_mean            =  -9.4735468938978E-04
(PID.TID 0000.0001) %MON dynstat_uvel_sd              =   1.6112715987767E-02
(PID.TID 0000.0001) %MON dynstat_uvel_del2            =   9.9586671429999E-05
(PID.TID 0000.0001) %MON dynstat_vvel_max             =   1.2816896033456E-01
(PID.TID 0000.0001) %MON dynstat_vvel_min             =  -1.1902488782839E-01
(PID.TID 0000.0001) %MON dynstat_vvel_mean            =   1.7804673232659E-04
(PID.TID 0000.0001) %MON dynstat_vvel_sd              =   9.3348214110095E-03
(PID.TID 0000.0001) %MON dynstat_vvel_del2            =   8.8730493046706E-05
(PID.TID 0000.0001) %MON dynstat_wvel_max             =   1.8667932633736E-04
(PID.TID 0000.0001) %MON dynstat_wvel_min             =  -1.9708916294703E-04
(PID.TID 0000.0001) %MON dynstat_wvel_mean            =   7.5326288306353E-23
(PID.TID 0000.0001) %MON dynstat_wvel_sd              =   1.9759242361510E-05
(PID.TID 0000.0001) %MON dynstat_wvel_del2            =   2.2435803395666E-07
(PID.TID 0000.0001) %MON dynstat_theta_max            =   2.9841200711356E+01
(PID.TID 0000.0001) %MON dynstat_theta_min            =  -2.0213784438608E+00
(PID.TID 0000.0001) %MON dynstat_theta_mean           =   3.6299661657852E+00
(PID.TID 0000.0001) %MON dynstat_theta_sd             =   4.4154504486117E+00
(PID.TID 0000.0001) %MON dynstat_theta_del2           =   4.8767198270636E-03
(PID.TID 0000.0001) %MON dynstat_salt_max             =   3.7449163739177E+01
(PID.TID 0000.0001) %MON dynstat_salt_min             =   2.9757501866695E+01
(PID.TID 0000.0001) %MON dynstat_salt_mean            =   3.4727971169530E+01
(PID.TID 0000.0001) %MON dynstat_salt_sd              =   2.9622475495260E-01
(PID.TID 0000.0001) %MON dynstat_salt_del2            =   1.0119905241912E-03
(PID.TID 0000.0001) %MON dynstat_sst_max              =   2.9841200711356E+01
(PID.TID 0000.0001) %MON dynstat_sst_min              =  -2.0213784438608E+00
(PID.TID 0000.0001) %MON dynstat_sst_mean             =   1.8680678011077E+01
(PID.TID 0000.0001) %MON dynstat_sst_sd               =   9.0551248194944E+00
(PID.TID 0000.0001) %MON dynstat_sst_del2             =   2.6271897688013E-02
(PID.TID 0000.0001) %MON dynstat_sss_max              =   3.7439329131191E+01
(PID.TID 0000.0001) %MON dynstat_sss_min              =   2.9757501866695E+01
(PID.TID 0000.0001) %MON dynstat_sss_mean             =   3.4864382980421E+01
(PID.TID 0000.0001) %MON dynstat_sss_sd               =   9.7078609959309E-01
(PID.TID 0000.0001) %MON dynstat_sss_del2             =   7.9906529581078E-03
(PID.TID 0000.0001) %MON forcing_qnet_max             =   4.3829453023275E+02
(PID.TID 0000.0001) %MON forcing_qnet_min             =  -1.8026952260335E+02
(PID.TID 0000.0001) %MON forcing_qnet_mean            =  -1.6427616833641E+01
(PID.TID 0000.0001) %MON forcing_qnet_sd              =   1.0879423939526E+02
(PID.TID 0000.0001) %MON forcing_qnet_del2            =   1.0203667350774E+00
(PID.TID 0000.0001) %MON forcing_qsw_max              =   0.0000000000000E+00
(PID.TID 0000.0001) %MON forcing_qsw_min              =   0.0000000000000E+00
(PID.TID 0000.0001) %MON forcing_qsw_mean             =   0.0000000000000E+00
(PID.TID 0000.0001) %MON forcing_qsw_sd               =   0.0000000000000E+00
(PID.TID 0000.0001) %MON forcing_qsw_del2             =   0.0000000000000E+00
(PID.TID 0000.0001) %MON forcing_empmr_max            =   8.1860149236945E-05
(PID.TID 0000.0001) %MON forcing_empmr_min            =  -7.6235600469469E-05
(PID.TID 0000.0001) %MON forcing_empmr_mean           =   9.2361945937058E-07
(PID.TID 0000.0001) %MON forcing_empmr_sd             =   2.8746828928173E-05
(PID.TID 0000.0001) %MON forcing_empmr_del2           =   3.6633793428934E-07
(PID.TID 0000.0001) %MON forcing_fu_max               =   2.7858280539513E-01
(PID.TID 0000.0001) %MON forcing_fu_min               =  -1.6918717175722E-01
(PID.TID 0000.0001) %MON forcing_fu_mean              =   1.6056035368035E-02
(PID.TID 0000.0001) %MON forcing_fu_sd                =   9.0876058187851E-02
(PID.TID 0000.0001) %MON forcing_fu_del2              =   7.1713030175372E-04
(PID.TID 0000.0001) %MON forcing_fv_max               =   2.2991287360589E-01
(PID.TID 0000.0001) %MON forcing_fv_min               =  -1.7714560031891E-01
(PID.TID 0000.0001) %MON forcing_fv_mean              =  -5.3241586462203E-03
(PID.TID 0000.0001) %MON forcing_fv_sd                =   4.7928888739260E-02
(PID.TID 0000.0001) %MON forcing_fv_del2              =   4.9390753513588E-04
(PID.TID 0000.0001) %MON trAdv_CFL_u_max              =   4.9324872110197E-02
(PID.TID 0000.0001) %MON trAdv_CFL_v_max              =   2.4533862424018E-02
(PID.TID 0000.0001) %MON trAdv_CFL_w_max              =   6.3812604469920E-02
(PID.TID 0000.0001) %MON advcfl_uvel_max              =   4.6798379072499E-02
(PID.TID 0000.0001) %MON advcfl_vvel_max              =   2.4901173410015E-02
(PID.TID 0000.0001) %MON advcfl_wvel_max              =   5.6659317350678E-02
(PID.TID 0000.0001) %MON advcfl_W_hf_max              =   6.2561329574707E-02
(PID.TID 0000.0001) %MON pe_b_mean                    =   4.0303072250299E-04
(PID.TID 0000.0001) %MON ke_max                       =   1.6467569511322E-02
(PID.TID 0000.0001) %MON ke_mean                      =   1.5749155951951E-04
(PID.TID 0000.0001) %MON ke_vol                       =   1.3226782436723E+18
(PID.TID 0000.0001) %MON vort_r_min                   =  -3.6784758157011E-07
(PID.TID 0000.0001) %MON vort_r_max                   =   4.3844585482319E-07
(PID.TID 0000.0001) %MON vort_a_mean                  =  -2.5274807313940E-05
(PID.TID 0000.0001) %MON vort_a_sd                    =   7.3604234533962E-05
(PID.TID 0000.0001) %MON vort_p_mean                  =  -3.1845655694250E-05
(PID.TID 0000.0001) %MON vort_p_sd                    =   1.3162252492507E-04
(PID.TID 0000.0001) %MON surfExpan_theta_mean         =  -4.3749956566800E-08
(PID.TID 0000.0001) %MON surfExpan_salt_mean          =   7.3437686844171E-08
(PID.TID 0000.0001) // =======================================================
(PID.TID 0000.0001) // End MONITOR dynamic field statistics
(PID.TID 0000.0001) // =======================================================
 EXTERNAL_FIELDS_LOAD,        17 : iP,iLd,i0,i1=    1    2    1    2 ; Wght=  0.9333333333  0.0666666667
 EXTERNAL_FIELDS_LOAD: (fu0,1),fu,fv= -3.5633E-02 -1.4435E-02 -3.4220E-02 -5.4615E-02
 EXTERNAL_FIELDS_LOAD: SST,SSS,Q,E-P=  8.5907E-01  3.4695E+01  2.6408E+02  1.1419E-05
DEBUG_STATS_RL:          Uvel (THERMODYNAMICS)  min= -1.16126896955722E-01
DEBUG_STATS_RL:          Uvel (THERMODYNAMICS)  max=  1.78652402151912E-01
DEBUG_STATS_RL:          Uvel (THERMODYNAMICS) mean=  3.63954819381292E-03
DEBUG_STATS_RL:          Uvel (THERMODYNAMICS) S.D.=  2.45065033324671E-02
DEBUG_STATS_RL:          Vvel (THERMODYNAMICS)  min= -1.19024887828391E-01
DEBUG_STATS_RL:          Vvel (THERMODYNAMICS)  max=  1.28168960334559E-01
DEBUG_STATS_RL:          Vvel (THERMODYNAMICS) mean=  1.36270296456931E-03
DEBUG_STATS_RL:          Vvel (THERMODYNAMICS) S.D.=  1.51288319430984E-02
DEBUG_STATS_RL:          Wvel (THERMODYNAMICS)  min= -1.97089162947030E-04
DEBUG_STATS_RL:          Wvel (THERMODYNAMICS)  max=  1.86679326337364E-04
DEBUG_STATS_RL:          Wvel (THERMODYNAMICS) mean=  2.01930726227065E-07
DEBUG_STATS_RL:          Wvel (THERMODYNAMICS) S.D.=  1.75904724305321E-05
DEBUG_STATS_RL:         Theta (THERMODYNAMICS)  min= -2.02008413600862E+00
DEBUG_STATS_RL:         Theta (THERMODYNAMICS)  max=  2.98432627582290E+01
DEBUG_STATS_RL:         Theta (THERMODYNAMICS) mean=  3.21871214007007E+00
DEBUG_STATS_RL:         Theta (THERMODYNAMICS) S.D.=  5.85627475890989E+00
DEBUG_STATS_RL:          Salt (THERMODYNAMICS)  min=  9.99999999999999E-03
DEBUG_STATS_RL:          Salt (THERMODYNAMICS)  max=  3.74498925790769E+01
DEBUG_STATS_RL:          Salt (THERMODYNAMICS) mean=  1.88551975905623E+01
DEBUG_STATS_RL:          Salt (THERMODYNAMICS) S.D.=  1.73006779363859E+01
DEBUG_STATS_RL:         GtNm1 (THERMODYNAMICS)  min= -3.25731983134377E-06
DEBUG_STATS_RL:         GtNm1 (THERMODYNAMICS)  max=  2.57143845664547E-06
DEBUG_STATS_RL:         GtNm1 (THERMODYNAMICS) mean=  7.12927578732670E-09
DEBUG_STATS_RL:         GtNm1 (THERMODYNAMICS) S.D.=  2.37566468891195E-07
DEBUG_STATS_RL:         GsNm1 (THERMODYNAMICS)  min= -7.50150828177534E-07
DEBUG_STATS_RL:         GsNm1 (THERMODYNAMICS)  max=  6.28096199674298E-07
DEBUG_STATS_RL:         GsNm1 (THERMODYNAMICS) mean= -5.48242181356288E-11
DEBUG_STATS_RL:         GsNm1 (THERMODYNAMICS) S.D.=  2.08951372670912E-08
DEBUG_STATS_RL:                EtaN (DYNAMICS)  min= -1.77249842106330E+00
DEBUG_STATS_RL:                EtaN (DYNAMICS)  max=  9.06963103559539E-01
DEBUG_STATS_RL:                EtaN (DYNAMICS) mean= -1.67411679312314E-01
DEBUG_STATS_RL:                EtaN (DYNAMICS) S.D.=  6.44113312123120E-01
DEBUG_STATS_RL:                Uvel (DYNAMICS)  min= -1.16126896955722E-01
DEBUG_STATS_RL:                Uvel (DYNAMICS)  max=  1.78652402151912E-01
DEBUG_STATS_RL:                Uvel (DYNAMICS) mean=  3.63954819381292E-03
DEBUG_STATS_RL:                Uvel (DYNAMICS) S.D.=  2.45065033324671E-02
DEBUG_STATS_RL:                Vvel (DYNAMICS)  min= -1.19024887828391E-01
DEBUG_STATS_RL:                Vvel (DYNAMICS)  max=  1.28168960334559E-01
DEBUG_STATS_RL:                Vvel (DYNAMICS) mean=  1.36270296456931E-03
DEBUG_STATS_RL:                Vvel (DYNAMICS) S.D.=  1.51288319430984E-02
DEBUG_STATS_RL:                Wvel (DYNAMICS)  min= -1.97089162947030E-04
DEBUG_STATS_RL:                Wvel (DYNAMICS)  max=  1.86679326337364E-04
DEBUG_STATS_RL:                Wvel (DYNAMICS) mean=  2.01930726227065E-07
DEBUG_STATS_RL:                Wvel (DYNAMICS) S.D.=  1.75904724305321E-05
DEBUG_STATS_RL:               Theta (DYNAMICS)  min= -2.02008413600862E+00
DEBUG_STATS_RL:               Theta (DYNAMICS)  max=  2.98432627582290E+01
DEBUG_STATS_RL:               Theta (DYNAMICS) mean=  3.21871214007007E+00
DEBUG_STATS_RL:               Theta (DYNAMICS) S.D.=  5.85627475890989E+00
DEBUG_STATS_RL:                Salt (DYNAMICS)  min=  9.99999999999999E-03
DEBUG_STATS_RL:                Salt (DYNAMICS)  max=  3.74498925790769E+01
DEBUG_STATS_RL:                Salt (DYNAMICS) mean=  1.88551975905623E+01
DEBUG_STATS_RL:                Salt (DYNAMICS) S.D.=  1.73006779363859E+01
DEBUG_STATS_RL:                  Gu (DYNAMICS)  min= -1.24505357190438E-01
DEBUG_STATS_RL:                  Gu (DYNAMICS)  max=  1.77181400376209E-01
DEBUG_STATS_RL:                  Gu (DYNAMICS) mean=  3.05624604161836E-03
DEBUG_STATS_RL:                  Gu (DYNAMICS) S.D.=  2.42668097719997E-02
DEBUG_STATS_RL:                  Gv (DYNAMICS)  min= -1.15512256731399E-01
DEBUG_STATS_RL:                  Gv (DYNAMICS)  max=  1.36489222035409E-01
DEBUG_STATS_RL:                  Gv (DYNAMICS) mean=  3.36540141521698E-03
DEBUG_STATS_RL:                  Gv (DYNAMICS) S.D.=  1.71052993309608E-02
DEBUG_STATS_RL:               GuNm1 (DYNAMICS)  min= -6.84294529341441E-06
DEBUG_STATS_RL:               GuNm1 (DYNAMICS)  max=  7.52025113619672E-06
DEBUG_STATS_RL:               GuNm1 (DYNAMICS) mean= -1.62801743983585E-08
DEBUG_STATS_RL:               GuNm1 (DYNAMICS) S.D.=  1.11511734369731E-06
DEBUG_STATS_RL:               GvNm1 (DYNAMICS)  min= -8.64194744068037E-06
DEBUG_STATS_RL:               GvNm1 (DYNAMICS)  max=  1.69370194822971E-05
DEBUG_STATS_RL:               GvNm1 (DYNAMICS) mean=  7.71942429425877E-07
DEBUG_STATS_RL:               GvNm1 (DYNAMICS) S.D.=  2.57199150871239E-06
DEBUG_STATS_RL:               GtNm1 (DYNAMICS)  min= -3.25731983134377E-06
DEBUG_STATS_RL:               GtNm1 (DYNAMICS)  max=  2.57143845664547E-06
DEBUG_STATS_RL:               GtNm1 (DYNAMICS) mean=  7.12927578732670E-09
DEBUG_STATS_RL:               GtNm1 (DYNAMICS) S.D.=  2.37566468891195E-07
DEBUG_STATS_RL:               GsNm1 (DYNAMICS)  min= -7.50150828177534E-07
DEBUG_STATS_RL:               GsNm1 (DYNAMICS)  max=  6.28096199674298E-07
DEBUG_STATS_RL:               GsNm1 (DYNAMICS) mean= -5.48242181356288E-11
DEBUG_STATS_RL:               GsNm1 (DYNAMICS) S.D.=  2.08951372670912E-08
DEBUG_STATS_RL:    cg2d_b (SOLVE_FOR_PRESSURE)  min= -1.94468154062377E+04
DEBUG_STATS_RL:    cg2d_b (SOLVE_FOR_PRESSURE)  max=  1.42358026623497E+04
DEBUG_STATS_RL:    cg2d_b (SOLVE_FOR_PRESSURE) mean=  1.23552454698358E+00
DEBUG_STATS_RL:    cg2d_b (SOLVE_FOR_PRESSURE) S.D.=  3.26694166343138E+03
 cg2d: Sum(rhs),rhsMax =   1.47080088257046E-01  1.27731890328527E+00
(PID.TID 0000.0001)  cg2d: iter=     1 ; resid.=  2.53924464609299E-01
(PID.TID 0000.0001)  cg2d: iter=     2 ; resid.=  2.40228213809981E-01
(PID.TID 0000.0001)  cg2d: iter=     3 ; resid.=  2.28784563263851E-01
(PID.TID 0000.0001)  cg2d: iter=     4 ; resid.=  1.68211738179783E-01
(PID.TID 0000.0001)  cg2d: iter=     5 ; resid.=  1.63852022562332E-01
(PID.TID 0000.0001)  cg2d: iter=     6 ; resid.=  1.34664206053147E-01
(PID.TID 0000.0001)  cg2d: iter=     7 ; resid.=  1.30434356132488E-01
(PID.TID 0000.0001)  cg2d: iter=     8 ; resid.=  1.21738771291572E-01
(PID.TID 0000.0001)  cg2d: iter=     9 ; resid.=  1.14522772669489E-01
(PID.TID 0000.0001)  cg2d: iter=    10 ; resid.=  1.02069605114237E-01
(PID.TID 0000.0001)  cg2d: iter=    11 ; resid.=  8.22602938045969E-02
(PID.TID 0000.0001)  cg2d: iter=    12 ; resid.=  5.91624915869299E-02
(PID.TID 0000.0001)  cg2d: iter=    13 ; resid.=  4.32132933232973E-02
(PID.TID 0000.0001)  cg2d: iter=    14 ; resid.=  3.41931551973095E-02
(PID.TID 0000.0001)  cg2d: iter=    15 ; resid.=  2.71830017263277E-02
(PID.TID 0000.0001)  cg2d: iter=    16 ; resid.=  2.42113065895667E-02
(PID.TID 0000.0001)  cg2d: iter=    17 ; resid.=  2.31374545717363E-02
(PID.TID 0000.0001)  cg2d: iter=    18 ; resid.=  1.85394242115541E-02
(PID.TID 0000.0001)  cg2d: iter=    19 ; resid.=  1.41545207532343E-02
(PID.TID 0000.0001)  cg2d: iter=    20 ; resid.=  1.06297892561725E-02
(PID.TID 0000.0001)  cg2d: iter=    21 ; resid.=  8.75139128349803E-03
(PID.TID 0000.0001)  cg2d: iter=    22 ; resid.=  8.10423309055739E-03
(PID.TID 0000.0001)  cg2d: iter=    23 ; resid.=  7.04057417965874E-03
(PID.TID 0000.0001)  cg2d: iter=    24 ; resid.=  6.86661540082188E-03
(PID.TID 0000.0001)  cg2d: iter=    25 ; resid.=  5.63201190245840E-03
(PID.TID 0000.0001)  cg2d: iter=    26 ; resid.=  4.65663920063333E-03
(PID.TID 0000.0001)  cg2d: iter=    27 ; resid.=  3.98367064320434E-03
(PID.TID 0000.0001)  cg2d: iter=    28 ; resid.=  3.39186193552559E-03
(PID.TID 0000.0001)  cg2d: iter=    29 ; resid.=  2.58085832680783E-03
(PID.TID 0000.0001)  cg2d: iter=    30 ; resid.=  2.30899669812051E-03
(PID.TID 0000.0001)  cg2d: iter=    31 ; resid.=  2.23215192992439E-03
(PID.TID 0000.0001)  cg2d: iter=    32 ; resid.=  1.70908449765857E-03
(PID.TID 0000.0001)  cg2d: iter=    33 ; resid.=  1.41620611732815E-03
(PID.TID 0000.0001)  cg2d: iter=    34 ; resid.=  1.30825873919711E-03
(PID.TID 0000.0001)  cg2d: iter=    35 ; resid.=  1.01017874739132E-03
(PID.TID 0000.0001)  cg2d: iter=    36 ; resid.=  7.52344637606558E-04
(PID.TID 0000.0001)  cg2d: iter=    37 ; resid.=  5.84752208318304E-04
(PID.TID 0000.0001)  cg2d: iter=    38 ; resid.=  4.73416720218222E-04
(PID.TID 0000.0001)  cg2d: iter=    39 ; resid.=  4.00287234467035E-04
(PID.TID 0000.0001)  cg2d: iter=    40 ; resid.=  3.62530383826531E-04
(PID.TID 0000.0001)  cg2d: iter=    41 ; resid.=  2.85283352119399E-04
(PID.TID 0000.0001)  cg2d: iter=    42 ; resid.=  2.39780517812673E-04
(PID.TID 0000.0001)  cg2d: iter=    43 ; resid.=  1.84600526957107E-04
(PID.TID 0000.0001)  cg2d: iter=    44 ; resid.=  1.46864573317574E-04
(PID.TID 0000.0001)  cg2d: iter=    45 ; resid.=  1.20274512448770E-04
(PID.TID 0000.0001)  cg2d: iter=    46 ; resid.=  9.86149380217301E-05
(PID.TID 0000.0001)  cg2d: iter=    47 ; resid.=  8.24810148730775E-05
(PID.TID 0000.0001)  cg2d: iter=    48 ; resid.=  6.55228371929461E-05
(PID.TID 0000.0001)  cg2d: iter=    49 ; resid.=  4.85455717441436E-05
(PID.TID 0000.0001)  cg2d: iter=    50 ; resid.=  4.10853624815207E-05
(PID.TID 0000.0001)  cg2d: iter=    51 ; resid.=  3.36920906784796E-05
(PID.TID 0000.0001)  cg2d: iter=    52 ; resid.=  2.60659444420543E-05
(PID.TID 0000.0001)  cg2d: iter=    53 ; resid.=  2.16377142973409E-05
(PID.TID 0000.0001)  cg2d: iter=    54 ; resid.=  1.97156274726637E-05
(PID.TID 0000.0001)  cg2d: iter=    55 ; resid.=  1.79842845044083E-05
(PID.TID 0000.0001)  cg2d: iter=    56 ; resid.=  1.68542527084073E-05
(PID.TID 0000.0001)  cg2d: iter=    57 ; resid.=  1.48176283743487E-05
(PID.TID 0000.0001)  cg2d: iter=    58 ; resid.=  1.13277522739241E-05
(PID.TID 0000.0001)  cg2d: iter=    59 ; resid.=  8.87161296014899E-06
(PID.TID 0000.0001)  cg2d: iter=    60 ; resid.=  7.24933258313874E-06
(PID.TID 0000.0001)  cg2d: iter=    61 ; resid.=  6.07769222310276E-06
(PID.TID 0000.0001)  cg2d: iter=    62 ; resid.=  4.92113652016077E-06
(PID.TID 0000.0001)  cg2d: iter=    63 ; resid.=  4.25404378042856E-06
(PID.TID 0000.0001)  cg2d: iter=    64 ; resid.=  3.65176831238340E-06
(PID.TID 0000.0001)  cg2d: iter=    65 ; resid.=  2.77551581093408E-06
(PID.TID 0000.0001)  cg2d: iter=    66 ; resid.=  2.01572770653530E-06
(PID.TID 0000.0001)  cg2d: iter=    67 ; resid.=  1.67160358596916E-06
(PID.TID 0000.0001)  cg2d: iter=    68 ; resid.=  1.35716748329434E-06
(PID.TID 0000.0001)  cg2d: iter=    69 ; resid.=  1.08655475476956E-06
(PID.TID 0000.0001)  cg2d: iter=    70 ; resid.=  8.92108185078664E-07
(PID.TID 0000.0001)  cg2d: iter=    71 ; resid.=  6.97720585416384E-07
(PID.TID 0000.0001)  cg2d: iter=    72 ; resid.=  5.33205598106086E-07
(PID.TID 0000.0001)  cg2d: iter=    73 ; resid.=  4.35639729245936E-07
(PID.TID 0000.0001)  cg2d: iter=    74 ; resid.=  3.63909761177316E-07
(PID.TID 0000.0001)  cg2d: iter=    75 ; resid.=  2.95850497846291E-07
(PID.TID 0000.0001)  cg2d: iter=    76 ; resid.=  2.35406507777901E-07
(PID.TID 0000.0001)  cg2d: iter=    77 ; resid.=  2.01509510382915E-07
(PID.TID 0000.0001)  cg2d: iter=    78 ; resid.=  1.68815534052677E-07
(PID.TID 0000.0001)  cg2d: iter=    79 ; resid.=  1.37613179559661E-07
(PID.TID 0000.0001)  cg2d: iter=    80 ; resid.=  1.08331909004139E-07
(PID.TID 0000.0001)  cg2d: iter=    81 ; resid.=  9.66805182371153E-08
(PID.TID 0000.0001)  cg2d: iter=    82 ; resid.=  7.82946252420826E-08
(PID.TID 0000.0001)  cg2d: iter=    83 ; resid.=  5.94638644178282E-08
(PID.TID 0000.0001)  cg2d: iter=    84 ; resid.=  4.37544727214141E-08
(PID.TID 0000.0001)  cg2d: iter=    85 ; resid.=  3.51833280524949E-08
(PID.TID 0000.0001)  cg2d: iter=    86 ; resid.=  2.83572909430781E-08
(PID.TID 0000.0001)  cg2d: iter=    87 ; resid.=  2.32275111117377E-08
(PID.TID 0000.0001)  cg2d: iter=    88 ; resid.=  1.65902124830273E-08
(PID.TID 0000.0001)  cg2d: iter=    89 ; resid.=  1.26319010572966E-08
(PID.TID 0000.0001)  cg2d: iter=    90 ; resid.=  1.01902151660163E-08
(PID.TID 0000.0001)  cg2d: iter=    91 ; resid.=  8.16527497535074E-09
(PID.TID 0000.0001)  cg2d: iter=    92 ; resid.=  6.30256832629795E-09
(PID.TID 0000.0001)  cg2d: iter=    93 ; resid.=  4.40037620927163E-09
(PID.TID 0000.0001)  cg2d: iter=    94 ; resid.=  3.51033016320181E-09
(PID.TID 0000.0001)  cg2d: iter=    95 ; resid.=  3.10095805129932E-09
(PID.TID 0000.0001)  cg2d: iter=    96 ; resid.=  2.44554054736475E-09
(PID.TID 0000.0001)  cg2d: iter=    97 ; resid.=  1.72254135932011E-09
(PID.TID 0000.0001)  cg2d: iter=    98 ; resid.=  1.22200156778718E-09
(PID.TID 0000.0001)  cg2d: iter=    99 ; resid.=  8.77942645037596E-10
(PID.TID 0000.0001)  cg2d: iter=   100 ; resid.=  6.50009127219382E-10
(PID.TID 0000.0001)  cg2d: iter=   101 ; resid.=  5.07733802010862E-10
(PID.TID 0000.0001)  cg2d: iter=   102 ; resid.=  4.15862005036265E-10
(PID.TID 0000.0001)  cg2d: iter=   103 ; resid.=  3.21392556116032E-10
(PID.TID 0000.0001)  cg2d: iter=   104 ; resid.=  2.49503757327457E-10
(PID.TID 0000.0001)  cg2d: iter=   105 ; resid.=  1.98142704730033E-10
(PID.TID 0000.0001)  cg2d: iter=   106 ; resid.=  1.63483215106451E-10
(PID.TID 0000.0001)  cg2d: iter=   107 ; resid.=  1.23041994038890E-10
(PID.TID 0000.0001)  cg2d: iter=   108 ; resid.=  9.77117108898439E-11
(PID.TID 0000.0001)  cg2d: iter=   109 ; resid.=  8.56323801234423E-11
(PID.TID 0000.0001)  cg2d: iter=   110 ; resid.=  7.74117705121154E-11
(PID.TID 0000.0001)  cg2d: iter=   111 ; resid.=  7.04090538640208E-11
(PID.TID 0000.0001)  cg2d: iter=   112 ; resid.=  5.87051091733109E-11
(PID.TID 0000.0001)  cg2d: iter=   113 ; resid.=  4.35123010919744E-11
(PID.TID 0000.0001)  cg2d: iter=   114 ; resid.=  3.07420190861664E-11
(PID.TID 0000.0001)  cg2d: iter=   115 ; resid.=  2.29112036409225E-11
(PID.TID 0000.0001)  cg2d: iter=   116 ; resid.=  1.80710980938643E-11
(PID.TID 0000.0001)  cg2d: iter=   117 ; resid.=  1.52834856150571E-11
(PID.TID 0000.0001)  cg2d: iter=   118 ; resid.=  1.33041765512412E-11
(PID.TID 0000.0001)  cg2d: iter=   119 ; resid.=  1.07195384282254E-11
(PID.TID 0000.0001)  cg2d: iter=   120 ; resid.=  8.88319685342828E-12
(PID.TID 0000.0001)  cg2d: iter=   121 ; resid.=  7.49160469187159E-12
(PID.TID 0000.0001)  cg2d: iter=   122 ; resid.=  5.82924895659603E-12
(PID.TID 0000.0001)  cg2d: iter=   123 ; resid.=  4.29010682764155E-12
(PID.TID 0000.0001)  cg2d: iter=   124 ; resid.=  3.03612015261810E-12
(PID.TID 0000.0001)  cg2d: iter=   125 ; resid.=  2.10045287882754E-12
(PID.TID 0000.0001)  cg2d: iter=   126 ; resid.=  1.49716779607571E-12
(PID.TID 0000.0001)  cg2d: iter=   127 ; resid.=  1.01411732680087E-12
(PID.TID 0000.0001)  cg2d: iter=   128 ; resid.=  7.14782614787625E-13
(PID.TID 0000.0001)  cg2d: iter=   129 ; resid.=  5.60600845063068E-13
(PID.TID 0000.0001)  cg2d: iter=   130 ; resid.=  4.31321251893638E-13
(PID.TID 0000.0001)  cg2d: iter=   131 ; resid.=  3.05571296564175E-13
(PID.TID 0000.0001)  cg2d: iter=   132 ; resid.=  1.94951495426782E-13
(PID.TID 0000.0001)  cg2d: iter=   133 ; resid.=  1.29470700980306E-13
(PID.TID 0000.0001)  cg2d: iter=   134 ; resid.=  9.96182397012908E-14
DEBUG_STATS_RL:    cg2d_x (SOLVE_FOR_PRESSURE)  min= -1.72191878741897E+01
DEBUG_STATS_RL:    cg2d_x (SOLVE_FOR_PRESSURE)  max=  9.33425092079908E+00
DEBUG_STATS_RL:    cg2d_x (SOLVE_FOR_PRESSURE) mean= -1.61739741491055E+00
DEBUG_STATS_RL:    cg2d_x (SOLVE_FOR_PRESSURE) S.D.=  6.20857474875384E+00
(PID.TID 0000.0001)      cg2d_init_res =   5.64414572664572E-01
(PID.TID 0000.0001)      cg2d_iters(min,last) =      -1     134
(PID.TID 0000.0001)      cg2d_last_res =   9.96182397012908E-14
(PID.TID 0000.0001) // =======================================================
(PID.TID 0000.0001) // Begin MONITOR dynamic field statistics
(PID.TID 0000.0001) // =======================================================
(PID.TID 0000.0001) %MON time_tsnumber                =                    18
(PID.TID 0000.0001) %MON time_secondsf                =   1.5552000000000E+06
(PID.TID 0000.0001) %MON dynstat_eta_max              =   9.5150366165129E-01
(PID.TID 0000.0001) %MON dynstat_eta_min              =  -1.7552688964516E+00
(PID.TID 0000.0001) %MON dynstat_eta_mean             =  -1.2891166647912E-03
(PID.TID 0000.0001) %MON dynstat_eta_sd               =   5.5571666261848E-01
(PID.TID 0000.0001) %MON dynstat_eta_del2             =   1.7609943887496E-03
(PID.TID 0000.0001) %MON dynstat_uvel_max             =   1.7397803608917E-01
(PID.TID 0000.0001) %MON dynstat_uvel_min             =  -1.2342394029746E-01
(PID.TID 0000.0001) %MON dynstat_uvel_mean            =  -1.0096879556340E-03
(PID.TID 0000.0001) %MON dynstat_uvel_sd              =   1.5833788888465E-02
(PID.TID 0000.0001) %MON dynstat_uvel_del2            =   9.8648700902846E-05
(PID.TID 0000.0001) %MON dynstat_vvel_max             =   1.3042770153299E-01
(PID.TID 0000.0001) %MON dynstat_vvel_min             =  -1.1948854456904E-01
(PID.TID 0000.0001) %MON dynstat_vvel_mean            =   2.9993497164501E-04
(PID.TID 0000.0001) %MON dynstat_vvel_sd              =   9.5485730071065E-03
(PID.TID 0000.0001) %MON dynstat_vvel_del2            =   8.9705984041596E-05
(PID.TID 0000.0001) %MON dynstat_wvel_max             =   1.7453375044964E-04
(PID.TID 0000.0001) %MON dynstat_wvel_min             =  -1.8945431190920E-04
(PID.TID 0000.0001) %MON dynstat_wvel_mean            =  -1.8612739496705E-22
(PID.TID 0000.0001) %MON dynstat_wvel_sd              =   1.9857137466799E-05
(PID.TID 0000.0001) %MON dynstat_wvel_del2            =   2.2743776222347E-07
(PID.TID 0000.0001) %MON dynstat_theta_max            =   2.9843262758229E+01
(PID.TID 0000.0001) %MON dynstat_theta_min            =  -2.0200841360086E+00
(PID.TID 0000.0001) %MON dynstat_theta_mean           =   3.6300547222880E+00
(PID.TID 0000.0001) %MON dynstat_theta_sd             =   4.4155564704173E+00
(PID.TID 0000.0001) %MON dynstat_theta_del2           =   4.8668357347263E-03
(PID.TID 0000.0001) %MON dynstat_salt_max             =   3.7449892579077E+01
(PID.TID 0000.0001) %MON dynstat_salt_min             =   2.9761960245445E+01
(PID.TID 0000.0001) %MON dynstat_salt_mean            =   3.4727970267100E+01
(PID.TID 0000.0001) %MON dynstat_salt_sd              =   2.9622805893907E-01
(PID.TID 0000.0001) %MON dynstat_salt_del2            =   1.0119648763430E-03
(PID.TID 0000.0001) %MON dynstat_sst_max              =   2.9843262758229E+01
(PID.TID 0000.0001) %MON dynstat_sst_min              =  -2.0200841360086E+00
(PID.TID 0000.0001) %MON dynstat_sst_mean             =   1.8686637199404E+01
(PID.TID 0000.0001) %MON dynstat_sst_sd               =   9.0549993478310E+00
(PID.TID 0000.0001) %MON dynstat_sst_del2             =   2.6312950860245E-02
(PID.TID 0000.0001) %MON dynstat_sss_max              =   3.7439456082762E+01
(PID.TID 0000.0001) %MON dynstat_sss_min              =   2.9761960245445E+01
(PID.TID 0000.0001) %MON dynstat_sss_mean             =   3.4863987482042E+01
(PID.TID 0000.0001) %MON dynstat_sss_sd               =   9.7122739038239E-01
(PID.TID 0000.0001) %MON dynstat_sss_del2             =   7.9893361524913E-03
(PID.TID 0000.0001) %MON forcing_qnet_max             =   4.3497544352214E+02
(PID.TID 0000.0001) %MON forcing_qnet_min             =  -1.7954050801595E+02
(PID.TID 0000.0001) %MON forcing_qnet_mean            =  -1.6342707666237E+01
(PID.TID 0000.0001) %MON forcing_qnet_sd              =   1.0771909522073E+02
(PID.TID 0000.0001) %MON forcing_qnet_del2            =   1.0162694266512E+00
(PID.TID 0000.0001) %MON forcing_qsw_max              =   0.0000000000000E+00
(PID.TID 0000.0001) %MON forcing_qsw_min              =   0.0000000000000E+00
(PID.TID 0000.0001) %MON forcing_qsw_mean             =   0.0000000000000E+00
(PID.TID 0000.0001) %MON forcing_qsw_sd               =   0.0000000000000E+00
(PID.TID 0000.0001) %MON forcing_qsw_del2             =   0.0000000000000E+00
(PID.TID 0000.0001) %MON forcing_empmr_max            =   8.1546059504944E-05
(PID.TID 0000.0001) %MON forcing_empmr_min            =  -7.6315244731025E-05
(PID.TID 0000.0001) %MON forcing_empmr_mean           =   9.2430185663055E-07
(PID.TID 0000.0001) %MON forcing_empmr_sd             =   2.8695327910656E-05
(PID.TID 0000.0001) %MON forcing_empmr_del2           =   3.6515496809023E-07
(PID.TID 0000.0001) %MON forcing_fu_max               =   2.7838672995567E-01
(PID.TID 0000.0001) %MON forcing_fu_min               =  -1.6925448477268E-01
(PID.TID 0000.0001) %MON forcing_fu_mean              =   1.6110335583504E-02
(PID.TID 0000.0001) %MON forcing_fu_sd                =   9.0706822910468E-02
(PID.TID 0000.0001) %MON forcing_fu_del2              =   7.0993529997620E-04
(PID.TID 0000.0001) %MON forcing_fv_max               =   2.2670442660650E-01
(PID.TID 0000.0001) %MON forcing_fv_min               =  -1.7615430057049E-01
(PID.TID 0000.0001) %MON forcing_fv_mean              =  -5.3894195529355E-03
(PID.TID 0000.0001) %MON forcing_fv_sd                =   4.7622093142011E-02
(PID.TID 0000.0001) %MON forcing_fv_del2              =   4.8876213669100E-04
(PID.TID 0000.0001) %MON trAdv_CFL_u_max              =   4.6807884157996E-02
(PID.TID 0000.0001) %MON trAdv_CFL_v_max              =   2.5107778435287E-02
(PID.TID 0000.0001) %MON trAdv_CFL_w_max              =   6.2561329574707E-02
(PID.TID 0000.0001) %MON advcfl_uvel_max              =   4.5483923161513E-02
(PID.TID 0000.0001) %MON advcfl_vvel_max              =   2.5340010599017E-02
(PID.TID 0000.0001) %MON advcfl_wvel_max              =   5.5011398485554E-02
(PID.TID 0000.0001) %MON advcfl_W_hf_max              =   6.0741752494466E-02
(PID.TID 0000.0001) %MON pe_b_mean                    =   3.9517583073027E-04
(PID.TID 0000.0001) %MON ke_max                       =   1.6039717688569E-02
(PID.TID 0000.0001) %MON ke_mean                      =   1.5533694685361E-04
(PID.TID 0000.0001) %MON ke_vol                       =   1.3226782436723E+18
(PID.TID 0000.0001) %MON vort_r_min                   =  -3.3900765753807E-07
(PID.TID 0000.0001) %MON vort_r_max                   =   4.5325968907108E-07
(PID.TID 0000.0001) %MON vort_a_mean                  =  -2.5274807297669E-05
(PID.TID 0000.0001) %MON vort_a_sd                    =   7.3604207571848E-05
(PID.TID 0000.0001) %MON vort_p_mean                  =  -3.1845655673749E-05
(PID.TID 0000.0001) %MON vort_p_sd                    =   1.3162284099440E-04
(PID.TID 0000.0001) %MON surfExpan_theta_mean         =   1.0477072765951E-07
(PID.TID 0000.0001) %MON surfExpan_salt_mean          =   9.2354183783005E-08
(PID.TID 0000.0001) // =======================================================
(PID.TID 0000.0001) // End MONITOR dynamic field statistics
(PID.TID 0000.0001) // =======================================================
 EXTERNAL_FIELDS_LOAD,        18 : iP,iLd,i0,i1=    1    2    1    2 ; Wght=  0.9000000000  0.1000000000
 EXTERNAL_FIELDS_LOAD: (fu0,1),fu,fv= -3.5633E-02 -1.4435E-02 -3.3513E-02 -5.3295E-02
 EXTERNAL_FIELDS_LOAD: SST,SSS,Q,E-P=  8.0940E-01  3.4685E+01  2.6324E+02  1.1311E-05
DEBUG_STATS_RL:          Uvel (THERMODYNAMICS)  min= -1.23423940297464E-01
DEBUG_STATS_RL:          Uvel (THERMODYNAMICS)  max=  1.73978036089171E-01
DEBUG_STATS_RL:          Uvel (THERMODYNAMICS) mean=  3.34322251285477E-03
DEBUG_STATS_RL:          Uvel (THERMODYNAMICS) S.D.=  2.39796670945010E-02
DEBUG_STATS_RL:          Vvel (THERMODYNAMICS)  min= -1.19488544569036E-01
DEBUG_STATS_RL:          Vvel (THERMODYNAMICS)  max=  1.30427701532992E-01
DEBUG_STATS_RL:          Vvel (THERMODYNAMICS) mean=  1.73944183507129E-03
DEBUG_STATS_RL:          Vvel (THERMODYNAMICS) S.D.=  1.56407326605785E-02
DEBUG_STATS_RL:          Wvel (THERMODYNAMICS)  min= -1.89454311909196E-04
DEBUG_STATS_RL:          Wvel (THERMODYNAMICS)  max=  1.74533750449641E-04
DEBUG_STATS_RL:          Wvel (THERMODYNAMICS) mean=  2.81390720395992E-07
DEBUG_STATS_RL:          Wvel (THERMODYNAMICS) S.D.=  1.78264677147460E-05
DEBUG_STATS_RL:         Theta (THERMODYNAMICS)  min= -2.01859269893894E+00
DEBUG_STATS_RL:         Theta (THERMODYNAMICS)  max=  2.98472206569820E+01
DEBUG_STATS_RL:         Theta (THERMODYNAMICS) mean=  3.21884988523687E+00
DEBUG_STATS_RL:         Theta (THERMODYNAMICS) S.D.=  5.85663333865359E+00
DEBUG_STATS_RL:          Salt (THERMODYNAMICS)  min=  9.99999999999999E-03
DEBUG_STATS_RL:          Salt (THERMODYNAMICS)  max=  3.74506866724872E+01
DEBUG_STATS_RL:          Salt (THERMODYNAMICS) mean=  1.88551907178639E+01
DEBUG_STATS_RL:          Salt (THERMODYNAMICS) S.D.=  1.73006720316311E+01
DEBUG_STATS_RL:         GtNm1 (THERMODYNAMICS)  min= -3.29917595964306E-06
DEBUG_STATS_RL:         GtNm1 (THERMODYNAMICS)  max=  2.61120082851110E-06
DEBUG_STATS_RL:         GtNm1 (THERMODYNAMICS) mean=  4.83675758229369E-09
DEBUG_STATS_RL:         GtNm1 (THERMODYNAMICS) S.D.=  2.36308227062015E-07
DEBUG_STATS_RL:         GsNm1 (THERMODYNAMICS)  min= -5.61637471464607E-07
DEBUG_STATS_RL:         GsNm1 (THERMODYNAMICS)  max=  4.49222112537581E-07
DEBUG_STATS_RL:         GsNm1 (THERMODYNAMICS) mean= -1.50076866220680E-10
DEBUG_STATS_RL:         GsNm1 (THERMODYNAMICS) S.D.=  2.07163060838202E-08
DEBUG_STATS_RL:                EtaN (DYNAMICS)  min= -1.75526889645165E+00
DEBUG_STATS_RL:                EtaN (DYNAMICS)  max=  9.51503661651290E-01
DEBUG_STATS_RL:                EtaN (DYNAMICS) mean= -1.64872315485277E-01
DEBUG_STATS_RL:                EtaN (DYNAMICS) S.D.=  6.32882237385713E-01
DEBUG_STATS_RL:                Uvel (DYNAMICS)  min= -1.23423940297464E-01
DEBUG_STATS_RL:                Uvel (DYNAMICS)  max=  1.73978036089171E-01
DEBUG_STATS_RL:                Uvel (DYNAMICS) mean=  3.34322251285477E-03
DEBUG_STATS_RL:                Uvel (DYNAMICS) S.D.=  2.39796670945010E-02
DEBUG_STATS_RL:                Vvel (DYNAMICS)  min= -1.19488544569036E-01
DEBUG_STATS_RL:                Vvel (DYNAMICS)  max=  1.30427701532992E-01
DEBUG_STATS_RL:                Vvel (DYNAMICS) mean=  1.73944183507129E-03
DEBUG_STATS_RL:                Vvel (DYNAMICS) S.D.=  1.56407326605785E-02
DEBUG_STATS_RL:                Wvel (DYNAMICS)  min= -1.89454311909196E-04
DEBUG_STATS_RL:                Wvel (DYNAMICS)  max=  1.74533750449641E-04
DEBUG_STATS_RL:                Wvel (DYNAMICS) mean=  2.81390720395992E-07
DEBUG_STATS_RL:                Wvel (DYNAMICS) S.D.=  1.78264677147460E-05
DEBUG_STATS_RL:               Theta (DYNAMICS)  min= -2.01859269893894E+00
DEBUG_STATS_RL:               Theta (DYNAMICS)  max=  2.98472206569820E+01
DEBUG_STATS_RL:               Theta (DYNAMICS) mean=  3.21884988523687E+00
DEBUG_STATS_RL:               Theta (DYNAMICS) S.D.=  5.85663333865359E+00
DEBUG_STATS_RL:                Salt (DYNAMICS)  min=  9.99999999999999E-03
DEBUG_STATS_RL:                Salt (DYNAMICS)  max=  3.74506866724872E+01
DEBUG_STATS_RL:                Salt (DYNAMICS) mean=  1.88551907178639E+01
DEBUG_STATS_RL:                Salt (DYNAMICS) S.D.=  1.73006720316311E+01
DEBUG_STATS_RL:                  Gu (DYNAMICS)  min= -1.31518375351010E-01
DEBUG_STATS_RL:                  Gu (DYNAMICS)  max=  1.74038472929060E-01
DEBUG_STATS_RL:                  Gu (DYNAMICS) mean=  2.83467575496675E-03
DEBUG_STATS_RL:                  Gu (DYNAMICS) S.D.=  2.36242378272398E-02
DEBUG_STATS_RL:                  Gv (DYNAMICS)  min= -1.15636906488429E-01
DEBUG_STATS_RL:                  Gv (DYNAMICS)  max=  1.49479759431635E-01
DEBUG_STATS_RL:                  Gv (DYNAMICS) mean=  3.75049343494082E-03
DEBUG_STATS_RL:                  Gv (DYNAMICS) S.D.=  1.77505805873779E-02
DEBUG_STATS_RL:               GuNm1 (DYNAMICS)  min= -6.97283512465292E-06
DEBUG_STATS_RL:               GuNm1 (DYNAMICS)  max=  7.61772978718889E-06
DEBUG_STATS_RL:               GuNm1 (DYNAMICS) mean= -1.43253919648916E-08
DEBUG_STATS_RL:               GuNm1 (DYNAMICS) S.D.=  1.12416811224252E-06
DEBUG_STATS_RL:               GvNm1 (DYNAMICS)  min= -8.80606135953323E-06
DEBUG_STATS_RL:               GvNm1 (DYNAMICS)  max=  1.69641239214642E-05
DEBUG_STATS_RL:               GvNm1 (DYNAMICS) mean=  7.72095724371633E-07
DEBUG_STATS_RL:               GvNm1 (DYNAMICS) S.D.=  2.57653680858108E-06
DEBUG_STATS_RL:               GtNm1 (DYNAMICS)  min= -3.29917595964306E-06
DEBUG_STATS_RL:               GtNm1 (DYNAMICS)  max=  2.61120082851110E-06
DEBUG_STATS_RL:               GtNm1 (DYNAMICS) mean=  4.83675758229369E-09
DEBUG_STATS_RL:               GtNm1 (DYNAMICS) S.D.=  2.36308227062015E-07
DEBUG_STATS_RL:               GsNm1 (DYNAMICS)  min= -5.61637471464607E-07
DEBUG_STATS_RL:               GsNm1 (DYNAMICS)  max=  4.49222112537581E-07
DEBUG_STATS_RL:               GsNm1 (DYNAMICS) mean= -1.50076866220680E-10
DEBUG_STATS_RL:               GsNm1 (DYNAMICS) S.D.=  2.07163060838202E-08
DEBUG_STATS_RL:    cg2d_b (SOLVE_FOR_PRESSURE)  min= -2.03565012616396E+04
DEBUG_STATS_RL:    cg2d_b (SOLVE_FOR_PRESSURE)  max=  1.45955123640372E+04
DEBUG_STATS_RL:    cg2d_b (SOLVE_FOR_PRESSURE) mean=  1.30953053959187E+00
DEBUG_STATS_RL:    cg2d_b (SOLVE_FOR_PRESSURE) S.D.=  3.32299155718946E+03
 cg2d: Sum(rhs),rhsMax =   1.48923587614117E-01  1.33706950588437E+00
(PID.TID 0000.0001)  cg2d: iter=     1 ; resid.=  2.38492098326269E-01
(PID.TID 0000.0001)  cg2d: iter=     2 ; resid.=  2.21563356555488E-01
(PID.TID 0000.0001)  cg2d: iter=     3 ; resid.=  2.27030623860970E-01
(PID.TID 0000.0001)  cg2d: iter=     4 ; resid.=  1.83055564590327E-01
(PID.TID 0000.0001)  cg2d: iter=     5 ; resid.=  1.74720160461876E-01
(PID.TID 0000.0001)  cg2d: iter=     6 ; resid.=  1.36632443998489E-01
(PID.TID 0000.0001)  cg2d: iter=     7 ; resid.=  1.36383814155427E-01
(PID.TID 0000.0001)  cg2d: iter=     8 ; resid.=  1.27729368369690E-01
(PID.TID 0000.0001)  cg2d: iter=     9 ; resid.=  1.11818924606271E-01
(PID.TID 0000.0001)  cg2d: iter=    10 ; resid.=  9.49696587470944E-02
(PID.TID 0000.0001)  cg2d: iter=    11 ; resid.=  7.51837974637280E-02
(PID.TID 0000.0001)  cg2d: iter=    12 ; resid.=  5.27232793580727E-02
(PID.TID 0000.0001)  cg2d: iter=    13 ; resid.=  3.85406824586829E-02
(PID.TID 0000.0001)  cg2d: iter=    14 ; resid.=  3.29153893362458E-02
(PID.TID 0000.0001)  cg2d: iter=    15 ; resid.=  2.82760630219921E-02
(PID.TID 0000.0001)  cg2d: iter=    16 ; resid.=  2.61320353831038E-02
(PID.TID 0000.0001)  cg2d: iter=    17 ; resid.=  2.52392090215571E-02
(PID.TID 0000.0001)  cg2d: iter=    18 ; resid.=  1.98128790610348E-02
(PID.TID 0000.0001)  cg2d: iter=    19 ; resid.=  1.51704287543840E-02
(PID.TID 0000.0001)  cg2d: iter=    20 ; resid.=  1.21663190467552E-02
(PID.TID 0000.0001)  cg2d: iter=    21 ; resid.=  1.00577028249589E-02
(PID.TID 0000.0001)  cg2d: iter=    22 ; resid.=  9.02203401546538E-03
(PID.TID 0000.0001)  cg2d: iter=    23 ; resid.=  7.86537658912661E-03
(PID.TID 0000.0001)  cg2d: iter=    24 ; resid.=  7.48522722974314E-03
(PID.TID 0000.0001)  cg2d: iter=    25 ; resid.=  5.71830351762857E-03
(PID.TID 0000.0001)  cg2d: iter=    26 ; resid.=  4.50610293274585E-03
(PID.TID 0000.0001)  cg2d: iter=    27 ; resid.=  3.86199304301277E-03
(PID.TID 0000.0001)  cg2d: iter=    28 ; resid.=  3.33962834406804E-03
(PID.TID 0000.0001)  cg2d: iter=    29 ; resid.=  2.54649146605949E-03
(PID.TID 0000.0001)  cg2d: iter=    30 ; resid.=  2.25324884481832E-03
(PID.TID 0000.0001)  cg2d: iter=    31 ; resid.=  2.13672095279778E-03
(PID.TID 0000.0001)  cg2d: iter=    32 ; resid.=  1.68010615858948E-03
(PID.TID 0000.0001)  cg2d: iter=    33 ; resid.=  1.40728983624667E-03
(PID.TID 0000.0001)  cg2d: iter=    34 ; resid.=  1.31056157299982E-03
(PID.TID 0000.0001)  cg2d: iter=    35 ; resid.=  1.01410345022679E-03
(PID.TID 0000.0001)  cg2d: iter=    36 ; resid.=  7.61430876566517E-04
(PID.TID 0000.0001)  cg2d: iter=    37 ; resid.=  6.04652816673381E-04
(PID.TID 0000.0001)  cg2d: iter=    38 ; resid.=  5.04306479823555E-04
(PID.TID 0000.0001)  cg2d: iter=    39 ; resid.=  4.44419084978777E-04
(PID.TID 0000.0001)  cg2d: iter=    40 ; resid.=  4.25049207727957E-04
(PID.TID 0000.0001)  cg2d: iter=    41 ; resid.=  3.29696273557530E-04
(PID.TID 0000.0001)  cg2d: iter=    42 ; resid.=  2.63769018608822E-04
(PID.TID 0000.0001)  cg2d: iter=    43 ; resid.=  1.99447428578561E-04
(PID.TID 0000.0001)  cg2d: iter=    44 ; resid.=  1.52012804321584E-04
(PID.TID 0000.0001)  cg2d: iter=    45 ; resid.=  1.20718715274680E-04
(PID.TID 0000.0001)  cg2d: iter=    46 ; resid.=  1.00118185589355E-04
(PID.TID 0000.0001)  cg2d: iter=    47 ; resid.=  8.63067575860594E-05
(PID.TID 0000.0001)  cg2d: iter=    48 ; resid.=  6.97506605484847E-05
(PID.TID 0000.0001)  cg2d: iter=    49 ; resid.=  5.37697011448323E-05
(PID.TID 0000.0001)  cg2d: iter=    50 ; resid.=  4.79545784353153E-05
(PID.TID 0000.0001)  cg2d: iter=    51 ; resid.=  4.00466680127737E-05
(PID.TID 0000.0001)  cg2d: iter=    52 ; resid.=  3.12754914048175E-05
(PID.TID 0000.0001)  cg2d: iter=    53 ; resid.=  2.55013768200432E-05
(PID.TID 0000.0001)  cg2d: iter=    54 ; resid.=  2.15004472309702E-05
(PID.TID 0000.0001)  cg2d: iter=    55 ; resid.=  1.87412411641439E-05
(PID.TID 0000.0001)  cg2d: iter=    56 ; resid.=  1.64533982572837E-05
(PID.TID 0000.0001)  cg2d: iter=    57 ; resid.=  1.34333046991407E-05
(PID.TID 0000.0001)  cg2d: iter=    58 ; resid.=  9.89885957764649E-06
(PID.TID 0000.0001)  cg2d: iter=    59 ; resid.=  7.81026321436431E-06
(PID.TID 0000.0001)  cg2d: iter=    60 ; resid.=  6.50447347882474E-06
(PID.TID 0000.0001)  cg2d: iter=    61 ; resid.=  5.81524528641005E-06
(PID.TID 0000.0001)  cg2d: iter=    62 ; resid.=  4.84559380535873E-06
(PID.TID 0000.0001)  cg2d: iter=    63 ; resid.=  4.20073153907415E-06
(PID.TID 0000.0001)  cg2d: iter=    64 ; resid.=  3.49551100225535E-06
(PID.TID 0000.0001)  cg2d: iter=    65 ; resid.=  2.72865305313873E-06
(PID.TID 0000.0001)  cg2d: iter=    66 ; resid.=  2.14150455596593E-06
(PID.TID 0000.0001)  cg2d: iter=    67 ; resid.=  1.90764341348286E-06
(PID.TID 0000.0001)  cg2d: iter=    68 ; resid.=  1.57142808546607E-06
(PID.TID 0000.0001)  cg2d: iter=    69 ; resid.=  1.27780732709998E-06
(PID.TID 0000.0001)  cg2d: iter=    70 ; resid.=  1.04745608112992E-06
(PID.TID 0000.0001)  cg2d: iter=    71 ; resid.=  8.46762076614019E-07
(PID.TID 0000.0001)  cg2d: iter=    72 ; resid.=  7.20511126375351E-07
(PID.TID 0000.0001)  cg2d: iter=    73 ; resid.=  6.51740290186806E-07
(PID.TID 0000.0001)  cg2d: iter=    74 ; resid.=  5.66108808371604E-07
(PID.TID 0000.0001)  cg2d: iter=    75 ; resid.=  4.73799294224713E-07
(PID.TID 0000.0001)  cg2d: iter=    76 ; resid.=  3.76626077556355E-07
(PID.TID 0000.0001)  cg2d: iter=    77 ; resid.=  3.12149152265483E-07
(PID.TID 0000.0001)  cg2d: iter=    78 ; resid.=  2.55632097171280E-07
(PID.TID 0000.0001)  cg2d: iter=    79 ; resid.=  2.03465559336210E-07
(PID.TID 0000.0001)  cg2d: iter=    80 ; resid.=  1.43908258305848E-07
(PID.TID 0000.0001)  cg2d: iter=    81 ; resid.=  1.07303528244001E-07
(PID.TID 0000.0001)  cg2d: iter=    82 ; resid.=  8.07365480551034E-08
(PID.TID 0000.0001)  cg2d: iter=    83 ; resid.=  5.97212662631523E-08
(PID.TID 0000.0001)  cg2d: iter=    84 ; resid.=  4.40271116572657E-08
(PID.TID 0000.0001)  cg2d: iter=    85 ; resid.=  3.56622719578103E-08
(PID.TID 0000.0001)  cg2d: iter=    86 ; resid.=  2.87391982029377E-08
(PID.TID 0000.0001)  cg2d: iter=    87 ; resid.=  2.43858324186390E-08
(PID.TID 0000.0001)  cg2d: iter=    88 ; resid.=  1.83215235017928E-08
(PID.TID 0000.0001)  cg2d: iter=    89 ; resid.=  1.43098383264792E-08
(PID.TID 0000.0001)  cg2d: iter=    90 ; resid.=  1.14405033535680E-08
(PID.TID 0000.0001)  cg2d: iter=    91 ; resid.=  9.30634942425432E-09
(PID.TID 0000.0001)  cg2d: iter=    92 ; resid.=  7.31168464460042E-09
(PID.TID 0000.0001)  cg2d: iter=    93 ; resid.=  4.90080983880341E-09
(PID.TID 0000.0001)  cg2d: iter=    94 ; resid.=  3.79557530399636E-09
(PID.TID 0000.0001)  cg2d: iter=    95 ; resid.=  3.47106111255868E-09
(PID.TID 0000.0001)  cg2d: iter=    96 ; resid.=  2.92708206219197E-09
(PID.TID 0000.0001)  cg2d: iter=    97 ; resid.=  2.18493524382371E-09
(PID.TID 0000.0001)  cg2d: iter=    98 ; resid.=  1.64578881477022E-09
(PID.TID 0000.0001)  cg2d: iter=    99 ; resid.=  1.30519467544210E-09
(PID.TID 0000.0001)  cg2d: iter=   100 ; resid.=  1.08268718383948E-09
(PID.TID 0000.0001)  cg2d: iter=   101 ; resid.=  9.65793619158048E-10
(PID.TID 0000.0001)  cg2d: iter=   102 ; resid.=  8.77815590416792E-10
(PID.TID 0000.0001)  cg2d: iter=   103 ; resid.=  7.21992211379041E-10
(PID.TID 0000.0001)  cg2d: iter=   104 ; resid.=  5.60072212174587E-10
(PID.TID 0000.0001)  cg2d: iter=   105 ; resid.=  4.38463781179767E-10
(PID.TID 0000.0001)  cg2d: iter=   106 ; resid.=  3.60221560050488E-10
(PID.TID 0000.0001)  cg2d: iter=   107 ; resid.=  2.79751266758420E-10
(PID.TID 0000.0001)  cg2d: iter=   108 ; resid.=  2.23279536113984E-10
(PID.TID 0000.0001)  cg2d: iter=   109 ; resid.=  1.73399105795127E-10
(PID.TID 0000.0001)  cg2d: iter=   110 ; resid.=  1.30369475359336E-10
(PID.TID 0000.0001)  cg2d: iter=   111 ; resid.=  1.01962731023175E-10
(PID.TID 0000.0001)  cg2d: iter=   112 ; resid.=  7.62986866899268E-11
(PID.TID 0000.0001)  cg2d: iter=   113 ; resid.=  5.37377434472822E-11
(PID.TID 0000.0001)  cg2d: iter=   114 ; resid.=  3.72769541413610E-11
(PID.TID 0000.0001)  cg2d: iter=   115 ; resid.=  2.62860396452191E-11
(PID.TID 0000.0001)  cg2d: iter=   116 ; resid.=  1.90238978732063E-11
(PID.TID 0000.0001)  cg2d: iter=   117 ; resid.=  1.53510460219293E-11
(PID.TID 0000.0001)  cg2d: iter=   118 ; resid.=  1.30395706738286E-11
(PID.TID 0000.0001)  cg2d: iter=   119 ; resid.=  1.03097951161910E-11
(PID.TID 0000.0001)  cg2d: iter=   120 ; resid.=  8.41058318296236E-12
(PID.TID 0000.0001)  cg2d: iter=   121 ; resid.=  6.80941144336867E-12
(PID.TID 0000.0001)  cg2d: iter=   122 ; resid.=  5.13376239012750E-12
(PID.TID 0000.0001)  cg2d: iter=   123 ; resid.=  3.61040837615750E-12
(PID.TID 0000.0001)  cg2d: iter=   124 ; resid.=  2.51756045253168E-12
(PID.TID 0000.0001)  cg2d: iter=   125 ; resid.=  1.81510959390496E-12
(PID.TID 0000.0001)  cg2d: iter=   126 ; resid.=  1.33426591538407E-12
(PID.TID 0000.0001)  cg2d: iter=   127 ; resid.=  9.25667587321374E-13
(PID.TID 0000.0001)  cg2d: iter=   128 ; resid.=  6.23752497471068E-13
(PID.TID 0000.0001)  cg2d: iter=   129 ; resid.=  4.52445097015715E-13
(PID.TID 0000.0001)  cg2d: iter=   130 ; resid.=  3.42898352749597E-13
(PID.TID 0000.0001)  cg2d: iter=   131 ; resid.=  2.60851987654880E-13
(PID.TID 0000.0001)  cg2d: iter=   132 ; resid.=  1.80237003407898E-13
(PID.TID 0000.0001)  cg2d: iter=   133 ; resid.=  1.19329875187230E-13
(PID.TID 0000.0001)  cg2d: iter=   134 ; resid.=  8.43581336097860E-14
DEBUG_STATS_RL:    cg2d_x (SOLVE_FOR_PRESSURE)  min= -1.69589585103861E+01
DEBUG_STATS_RL:    cg2d_x (SOLVE_FOR_PRESSURE)  max=  1.01868727031317E+01
DEBUG_STATS_RL:    cg2d_x (SOLVE_FOR_PRESSURE) mean= -1.60038534009733E+00
DEBUG_STATS_RL:    cg2d_x (SOLVE_FOR_PRESSURE) S.D.=  6.14223236413487E+00
(PID.TID 0000.0001)      cg2d_init_res =   5.41962651921759E-01
(PID.TID 0000.0001)      cg2d_iters(min,last) =      -1     134
(PID.TID 0000.0001)      cg2d_last_res =   8.43581336097860E-14
(PID.TID 0000.0001) // =======================================================
(PID.TID 0000.0001) // Begin MONITOR dynamic field statistics
(PID.TID 0000.0001) // =======================================================
(PID.TID 0000.0001) %MON time_tsnumber                =                    19
(PID.TID 0000.0001) %MON time_secondsf                =   1.6416000000000E+06
(PID.TID 0000.0001) %MON dynstat_eta_max              =   1.0384171970573E+00
(PID.TID 0000.0001) %MON dynstat_eta_min              =  -1.7287419480516E+00
(PID.TID 0000.0001) %MON dynstat_eta_mean             =  -1.3663327416377E-03
(PID.TID 0000.0001) %MON dynstat_eta_sd               =   5.5119313800110E-01
(PID.TID 0000.0001) %MON dynstat_eta_del2             =   1.7874414307004E-03
(PID.TID 0000.0001) %MON dynstat_uvel_max             =   1.6737695234513E-01
(PID.TID 0000.0001) %MON dynstat_uvel_min             =  -1.3028436980302E-01
(PID.TID 0000.0001) %MON dynstat_uvel_mean            =  -9.7547313020777E-04
(PID.TID 0000.0001) %MON dynstat_uvel_sd              =   1.5436670792025E-02
(PID.TID 0000.0001) %MON dynstat_uvel_del2            =   9.6999213605862E-05
(PID.TID 0000.0001) %MON dynstat_vvel_max             =   1.3196957808677E-01
(PID.TID 0000.0001) %MON dynstat_vvel_min             =  -1.1914889935880E-01
(PID.TID 0000.0001) %MON dynstat_vvel_mean            =   3.8090746978303E-04
(PID.TID 0000.0001) %MON dynstat_vvel_sd              =   9.7966355696789E-03
(PID.TID 0000.0001) %MON dynstat_vvel_del2            =   9.0659608137984E-05
(PID.TID 0000.0001) %MON dynstat_wvel_max             =   1.6196458793127E-04
(PID.TID 0000.0001) %MON dynstat_wvel_min             =  -1.7733858207331E-04
(PID.TID 0000.0001) %MON dynstat_wvel_mean            =  -1.9486062835486E-22
(PID.TID 0000.0001) %MON dynstat_wvel_sd              =   1.9811432678831E-05
(PID.TID 0000.0001) %MON dynstat_wvel_del2            =   2.2709483726851E-07
(PID.TID 0000.0001) %MON dynstat_theta_max            =   2.9847220656982E+01
(PID.TID 0000.0001) %MON dynstat_theta_min            =  -2.0185926989389E+00
(PID.TID 0000.0001) %MON dynstat_theta_mean           =   3.6301399494835E+00
(PID.TID 0000.0001) %MON dynstat_theta_sd             =   4.4156629468472E+00
(PID.TID 0000.0001) %MON dynstat_theta_del2           =   4.8595427848130E-03
(PID.TID 0000.0001) %MON dynstat_salt_max             =   3.7450686672487E+01
(PID.TID 0000.0001) %MON dynstat_salt_min             =   2.9768110610326E+01
(PID.TID 0000.0001) %MON dynstat_salt_mean            =   3.4727968903137E+01
(PID.TID 0000.0001) %MON dynstat_salt_sd              =   2.9622783059186E-01
(PID.TID 0000.0001) %MON dynstat_salt_del2            =   1.0117744853071E-03
(PID.TID 0000.0001) %MON dynstat_sst_max              =   2.9847220656982E+01
(PID.TID 0000.0001) %MON dynstat_sst_min              =  -2.0185926989389E+00
(PID.TID 0000.0001) %MON dynstat_sst_mean             =   1.8691820340855E+01
(PID.TID 0000.0001) %MON dynstat_sst_sd               =   9.0555122219785E+00
(PID.TID 0000.0001) %MON dynstat_sst_del2             =   2.6347515764383E-02
(PID.TID 0000.0001) %MON dynstat_sss_max              =   3.7439626618347E+01
(PID.TID 0000.0001) %MON dynstat_sss_min              =   2.9768110610326E+01
(PID.TID 0000.0001) %MON dynstat_sss_mean             =   3.4863504332358E+01
(PID.TID 0000.0001) %MON dynstat_sss_sd               =   9.7165708297935E-01
(PID.TID 0000.0001) %MON dynstat_sss_del2             =   7.9875051741272E-03
(PID.TID 0000.0001) %MON forcing_qnet_max             =   4.3165635681152E+02
(PID.TID 0000.0001) %MON forcing_qnet_min             =  -1.7930098876953E+02
(PID.TID 0000.0001) %MON forcing_qnet_mean            =  -1.6257798498834E+01
(PID.TID 0000.0001) %MON forcing_qnet_sd              =   1.0664755624532E+02
(PID.TID 0000.0001) %MON forcing_qnet_del2            =   1.0122795175581E+00
(PID.TID 0000.0001) %MON forcing_qsw_max              =   0.0000000000000E+00
(PID.TID 0000.0001) %MON forcing_qsw_min              =   0.0000000000000E+00
(PID.TID 0000.0001) %MON forcing_qsw_mean             =   0.0000000000000E+00
(PID.TID 0000.0001) %MON forcing_qsw_sd               =   0.0000000000000E+00
(PID.TID 0000.0001) %MON forcing_qsw_del2             =   0.0000000000000E+00
(PID.TID 0000.0001) %MON forcing_empmr_max            =   8.1231969772944E-05
(PID.TID 0000.0001) %MON forcing_empmr_min            =  -7.6394888992581E-05
(PID.TID 0000.0001) %MON forcing_empmr_mean           =   9.2498425389048E-07
(PID.TID 0000.0001) %MON forcing_empmr_sd             =   2.8645556443893E-05
(PID.TID 0000.0001) %MON forcing_empmr_del2           =   3.6402796723615E-07
(PID.TID 0000.0001) %MON forcing_fu_max               =   2.7819065451622E-01
(PID.TID 0000.0001) %MON forcing_fu_min               =  -1.7091440856457E-01
(PID.TID 0000.0001) %MON forcing_fu_mean              =   1.6164635798973E-02
(PID.TID 0000.0001) %MON forcing_fu_sd                =   9.0554740471920E-02
(PID.TID 0000.0001) %MON forcing_fu_del2              =   7.0326557516560E-04
(PID.TID 0000.0001) %MON forcing_fv_max               =   2.2349597960711E-01
(PID.TID 0000.0001) %MON forcing_fv_min               =  -1.7516300082207E-01
(PID.TID 0000.0001) %MON forcing_fv_mean              =  -5.4546804596506E-03
(PID.TID 0000.0001) %MON forcing_fv_sd                =   4.7328470565258E-02
(PID.TID 0000.0001) %MON forcing_fv_del2              =   4.8406077640453E-04
(PID.TID 0000.0001) %MON trAdv_CFL_u_max              =   4.5493161271614E-02
(PID.TID 0000.0001) %MON trAdv_CFL_v_max              =   2.5550256656261E-02
(PID.TID 0000.0001) %MON trAdv_CFL_w_max              =   6.0741752494466E-02
(PID.TID 0000.0001) %MON advcfl_uvel_max              =   4.3758169770189E-02
(PID.TID 0000.0001) %MON advcfl_vvel_max              =   2.5639572484690E-02
(PID.TID 0000.0001) %MON advcfl_wvel_max              =   5.2896508571095E-02
(PID.TID 0000.0001) %MON advcfl_W_hf_max              =   5.8406561547251E-02
(PID.TID 0000.0001) %MON pe_b_mean                    =   3.8876886197349E-04
(PID.TID 0000.0001) %MON ke_max                       =   1.5441780313336E-02
(PID.TID 0000.0001) %MON ke_mean                      =   1.5184352551393E-04
(PID.TID 0000.0001) %MON ke_vol                       =   1.3226782436723E+18
(PID.TID 0000.0001) %MON vort_r_min                   =  -3.0711280936721E-07
(PID.TID 0000.0001) %MON vort_r_max                   =   4.6266255531200E-07
(PID.TID 0000.0001) %MON vort_a_mean                  =  -2.5274807216990E-05
(PID.TID 0000.0001) %MON vort_a_sd                    =   7.3604198811095E-05
(PID.TID 0000.0001) %MON vort_p_mean                  =  -3.1845655572095E-05
(PID.TID 0000.0001) %MON vort_p_sd                    =   1.3162324473915E-04
(PID.TID 0000.0001) %MON surfExpan_theta_mean         =   1.6220090664024E-07
(PID.TID 0000.0001) %MON surfExpan_salt_mean          =   1.0962875750396E-07
(PID.TID 0000.0001) // =======================================================
(PID.TID 0000.0001) // End MONITOR dynamic field statistics
(PID.TID 0000.0001) // =======================================================
 EXTERNAL_FIELDS_LOAD,        19 : iP,iLd,i0,i1=    1    2    1    2 ; Wght=  0.8666666667  0.1333333333
 EXTERNAL_FIELDS_LOAD: (fu0,1),fu,fv= -3.5633E-02 -1.4435E-02 -3.2807E-02 -5.1974E-02
 EXTERNAL_FIELDS_LOAD: SST,SSS,Q,E-P=  7.5972E-01  3.4675E+01  2.6240E+02  1.1202E-05
DEBUG_STATS_RL:          Uvel (THERMODYNAMICS)  min= -1.30284369803019E-01
DEBUG_STATS_RL:          Uvel (THERMODYNAMICS)  max=  1.67376952345126E-01
DEBUG_STATS_RL:          Uvel (THERMODYNAMICS) mean=  3.08524451112159E-03
DEBUG_STATS_RL:          Uvel (THERMODYNAMICS) S.D.=  2.32908090962111E-02
DEBUG_STATS_RL:          Vvel (THERMODYNAMICS)  min= -1.19148899358802E-01
DEBUG_STATS_RL:          Vvel (THERMODYNAMICS)  max=  1.31969578086770E-01
DEBUG_STATS_RL:          Vvel (THERMODYNAMICS) mean=  2.01847361512102E-03
DEBUG_STATS_RL:          Vvel (THERMODYNAMICS) S.D.=  1.61282938002442E-02
DEBUG_STATS_RL:          Wvel (THERMODYNAMICS)  min= -1.77338582073310E-04
DEBUG_STATS_RL:          Wvel (THERMODYNAMICS)  max=  1.61964587931271E-04
DEBUG_STATS_RL:          Wvel (THERMODYNAMICS) mean=  3.46383917695733E-07
DEBUG_STATS_RL:          Wvel (THERMODYNAMICS) S.D.=  1.79037145532048E-05
DEBUG_STATS_RL:         Theta (THERMODYNAMICS)  min= -2.01694862732563E+00
DEBUG_STATS_RL:         Theta (THERMODYNAMICS)  max=  2.98528984920710E+01
DEBUG_STATS_RL:         Theta (THERMODYNAMICS) mean=  3.21890840774668E+00
DEBUG_STATS_RL:         Theta (THERMODYNAMICS) S.D.=  5.85693124378694E+00
DEBUG_STATS_RL:          Salt (THERMODYNAMICS)  min=  9.99999999999999E-03
DEBUG_STATS_RL:          Salt (THERMODYNAMICS)  max=  3.74515246897466E+01
DEBUG_STATS_RL:          Salt (THERMODYNAMICS) mean=  1.88551795614979E+01
DEBUG_STATS_RL:          Salt (THERMODYNAMICS) S.D.=  1.73006620423118E+01
DEBUG_STATS_RL:         GtNm1 (THERMODYNAMICS)  min= -3.30889280196988E-06
DEBUG_STATS_RL:         GtNm1 (THERMODYNAMICS)  max=  2.63394760910406E-06
DEBUG_STATS_RL:         GtNm1 (THERMODYNAMICS) mean=  2.93936273101482E-09
DEBUG_STATS_RL:         GtNm1 (THERMODYNAMICS) S.D.=  2.36009897394867E-07
DEBUG_STATS_RL:         GsNm1 (THERMODYNAMICS)  min= -5.47715892084853E-07
DEBUG_STATS_RL:         GsNm1 (THERMODYNAMICS)  max=  3.66318317414405E-07
DEBUG_STATS_RL:         GsNm1 (THERMODYNAMICS) mean= -2.34666916759327E-10
DEBUG_STATS_RL:         GsNm1 (THERMODYNAMICS) S.D.=  2.06803355954968E-08
DEBUG_STATS_RL:                EtaN (DYNAMICS)  min= -1.72874194805159E+00
DEBUG_STATS_RL:                EtaN (DYNAMICS)  max=  1.03841719705725E+00
DEBUG_STATS_RL:                EtaN (DYNAMICS) mean= -1.63138159031329E-01
DEBUG_STATS_RL:                EtaN (DYNAMICS) S.D.=  6.26119507047390E-01
DEBUG_STATS_RL:                Uvel (DYNAMICS)  min= -1.30284369803019E-01
DEBUG_STATS_RL:                Uvel (DYNAMICS)  max=  1.67376952345126E-01
DEBUG_STATS_RL:                Uvel (DYNAMICS) mean=  3.08524451112159E-03
DEBUG_STATS_RL:                Uvel (DYNAMICS) S.D.=  2.32908090962111E-02
DEBUG_STATS_RL:                Vvel (DYNAMICS)  min= -1.19148899358802E-01
DEBUG_STATS_RL:                Vvel (DYNAMICS)  max=  1.31969578086770E-01
DEBUG_STATS_RL:                Vvel (DYNAMICS) mean=  2.01847361512102E-03
DEBUG_STATS_RL:                Vvel (DYNAMICS) S.D.=  1.61282938002442E-02
DEBUG_STATS_RL:                Wvel (DYNAMICS)  min= -1.77338582073310E-04
DEBUG_STATS_RL:                Wvel (DYNAMICS)  max=  1.61964587931271E-04
DEBUG_STATS_RL:                Wvel (DYNAMICS) mean=  3.46383917695733E-07
DEBUG_STATS_RL:                Wvel (DYNAMICS) S.D.=  1.79037145532048E-05
DEBUG_STATS_RL:               Theta (DYNAMICS)  min= -2.01694862732563E+00
DEBUG_STATS_RL:               Theta (DYNAMICS)  max=  2.98528984920710E+01
DEBUG_STATS_RL:               Theta (DYNAMICS) mean=  3.21890840774668E+00
DEBUG_STATS_RL:               Theta (DYNAMICS) S.D.=  5.85693124378694E+00
DEBUG_STATS_RL:                Salt (DYNAMICS)  min=  9.99999999999999E-03
DEBUG_STATS_RL:                Salt (DYNAMICS)  max=  3.74515246897466E+01
DEBUG_STATS_RL:                Salt (DYNAMICS) mean=  1.88551795614979E+01
DEBUG_STATS_RL:                Salt (DYNAMICS) S.D.=  1.73006620423118E+01
DEBUG_STATS_RL:                  Gu (DYNAMICS)  min= -1.38046500627280E-01
DEBUG_STATS_RL:                  Gu (DYNAMICS)  max=  1.68355478934320E-01
DEBUG_STATS_RL:                  Gu (DYNAMICS) mean=  2.65645037540631E-03
DEBUG_STATS_RL:                  Gu (DYNAMICS) S.D.=  2.28790812428184E-02
DEBUG_STATS_RL:                  Gv (DYNAMICS)  min= -1.22247280048181E-01
DEBUG_STATS_RL:                  Gv (DYNAMICS)  max=  1.59225242621001E-01
DEBUG_STATS_RL:                  Gv (DYNAMICS) mean=  4.03342391664796E-03
DEBUG_STATS_RL:                  Gv (DYNAMICS) S.D.=  1.82585486974989E-02
DEBUG_STATS_RL:               GuNm1 (DYNAMICS)  min= -7.08328283059191E-06
DEBUG_STATS_RL:               GuNm1 (DYNAMICS)  max=  7.72955669788506E-06
DEBUG_STATS_RL:               GuNm1 (DYNAMICS) mean= -1.26684761558407E-08
DEBUG_STATS_RL:               GuNm1 (DYNAMICS) S.D.=  1.13443794746616E-06
DEBUG_STATS_RL:               GvNm1 (DYNAMICS)  min= -9.00518412356028E-06
DEBUG_STATS_RL:               GvNm1 (DYNAMICS)  max=  1.69795917003987E-05
DEBUG_STATS_RL:               GvNm1 (DYNAMICS) mean=  7.72274093257767E-07
DEBUG_STATS_RL:               GvNm1 (DYNAMICS) S.D.=  2.58313521921615E-06
DEBUG_STATS_RL:               GtNm1 (DYNAMICS)  min= -3.30889280196988E-06
DEBUG_STATS_RL:               GtNm1 (DYNAMICS)  max=  2.63394760910406E-06
DEBUG_STATS_RL:               GtNm1 (DYNAMICS) mean=  2.93936273101482E-09
DEBUG_STATS_RL:               GtNm1 (DYNAMICS) S.D.=  2.36009897394867E-07
DEBUG_STATS_RL:               GsNm1 (DYNAMICS)  min= -5.47715892084853E-07
DEBUG_STATS_RL:               GsNm1 (DYNAMICS)  max=  3.66318317414405E-07
DEBUG_STATS_RL:               GsNm1 (DYNAMICS) mean= -2.34666916759327E-10
DEBUG_STATS_RL:               GsNm1 (DYNAMICS) S.D.=  2.06803355954968E-08
DEBUG_STATS_RL:    cg2d_b (SOLVE_FOR_PRESSURE)  min= -2.12152455601121E+04
DEBUG_STATS_RL:    cg2d_b (SOLVE_FOR_PRESSURE)  max=  1.50804552675792E+04
DEBUG_STATS_RL:    cg2d_b (SOLVE_FOR_PRESSURE) mean=  1.38359112933069E+00
DEBUG_STATS_RL:    cg2d_b (SOLVE_FOR_PRESSURE) S.D.=  3.38650065576400E+03
 cg2d: Sum(rhs),rhsMax =   1.50976968676859E-01  1.39347413063210E+00
(PID.TID 0000.0001)  cg2d: iter=     1 ; resid.=  2.22893746987544E-01
(PID.TID 0000.0001)  cg2d: iter=     2 ; resid.=  2.06944144643076E-01
(PID.TID 0000.0001)  cg2d: iter=     3 ; resid.=  2.18155473531920E-01
(PID.TID 0000.0001)  cg2d: iter=     4 ; resid.=  1.92897713305372E-01
(PID.TID 0000.0001)  cg2d: iter=     5 ; resid.=  1.82440855581846E-01
(PID.TID 0000.0001)  cg2d: iter=     6 ; resid.=  1.35988250383939E-01
(PID.TID 0000.0001)  cg2d: iter=     7 ; resid.=  1.32145906947588E-01
(PID.TID 0000.0001)  cg2d: iter=     8 ; resid.=  1.19839499362108E-01
(PID.TID 0000.0001)  cg2d: iter=     9 ; resid.=  9.82066919614953E-02
(PID.TID 0000.0001)  cg2d: iter=    10 ; resid.=  8.01315789930104E-02
(PID.TID 0000.0001)  cg2d: iter=    11 ; resid.=  6.59434070803968E-02
(PID.TID 0000.0001)  cg2d: iter=    12 ; resid.=  4.76311668064813E-02
(PID.TID 0000.0001)  cg2d: iter=    13 ; resid.=  3.59764420889783E-02
(PID.TID 0000.0001)  cg2d: iter=    14 ; resid.=  3.21408443969336E-02
(PID.TID 0000.0001)  cg2d: iter=    15 ; resid.=  2.81708017040698E-02
(PID.TID 0000.0001)  cg2d: iter=    16 ; resid.=  2.63380097254226E-02
(PID.TID 0000.0001)  cg2d: iter=    17 ; resid.=  2.56004009927514E-02
(PID.TID 0000.0001)  cg2d: iter=    18 ; resid.=  1.97585363022944E-02
(PID.TID 0000.0001)  cg2d: iter=    19 ; resid.=  1.51256151528989E-02
(PID.TID 0000.0001)  cg2d: iter=    20 ; resid.=  1.28226048843493E-02
(PID.TID 0000.0001)  cg2d: iter=    21 ; resid.=  1.05356583325987E-02
(PID.TID 0000.0001)  cg2d: iter=    22 ; resid.=  8.99696720718974E-03
(PID.TID 0000.0001)  cg2d: iter=    23 ; resid.=  7.93074225881873E-03
(PID.TID 0000.0001)  cg2d: iter=    24 ; resid.=  7.49626398489511E-03
(PID.TID 0000.0001)  cg2d: iter=    25 ; resid.=  5.61413668317163E-03
(PID.TID 0000.0001)  cg2d: iter=    26 ; resid.=  4.30390462008263E-03
(PID.TID 0000.0001)  cg2d: iter=    27 ; resid.=  3.63847701254833E-03
(PID.TID 0000.0001)  cg2d: iter=    28 ; resid.=  3.14882959251710E-03
(PID.TID 0000.0001)  cg2d: iter=    29 ; resid.=  2.46968361731610E-03
(PID.TID 0000.0001)  cg2d: iter=    30 ; resid.=  2.17001881743632E-03
(PID.TID 0000.0001)  cg2d: iter=    31 ; resid.=  1.99668234444210E-03
(PID.TID 0000.0001)  cg2d: iter=    32 ; resid.=  1.60734602935793E-03
(PID.TID 0000.0001)  cg2d: iter=    33 ; resid.=  1.34458126042634E-03
(PID.TID 0000.0001)  cg2d: iter=    34 ; resid.=  1.22473031295637E-03
(PID.TID 0000.0001)  cg2d: iter=    35 ; resid.=  9.46427379314730E-04
(PID.TID 0000.0001)  cg2d: iter=    36 ; resid.=  7.22463014594218E-04
(PID.TID 0000.0001)  cg2d: iter=    37 ; resid.=  5.91604148981296E-04
(PID.TID 0000.0001)  cg2d: iter=    38 ; resid.=  5.08260317527150E-04
(PID.TID 0000.0001)  cg2d: iter=    39 ; resid.=  4.43727734627166E-04
(PID.TID 0000.0001)  cg2d: iter=    40 ; resid.=  4.18909910956528E-04
(PID.TID 0000.0001)  cg2d: iter=    41 ; resid.=  3.15897246357726E-04
(PID.TID 0000.0001)  cg2d: iter=    42 ; resid.=  2.49599080068025E-04
(PID.TID 0000.0001)  cg2d: iter=    43 ; resid.=  1.92241889536508E-04
(PID.TID 0000.0001)  cg2d: iter=    44 ; resid.=  1.45295680473581E-04
(PID.TID 0000.0001)  cg2d: iter=    45 ; resid.=  1.10976676943691E-04
(PID.TID 0000.0001)  cg2d: iter=    46 ; resid.=  9.15960316262858E-05
(PID.TID 0000.0001)  cg2d: iter=    47 ; resid.=  8.10473386632118E-05
(PID.TID 0000.0001)  cg2d: iter=    48 ; resid.=  6.85303411870222E-05
(PID.TID 0000.0001)  cg2d: iter=    49 ; resid.=  5.58522814204667E-05
(PID.TID 0000.0001)  cg2d: iter=    50 ; resid.=  5.06553944050719E-05
(PID.TID 0000.0001)  cg2d: iter=    51 ; resid.=  4.07989539104188E-05
(PID.TID 0000.0001)  cg2d: iter=    52 ; resid.=  3.10157867690477E-05
(PID.TID 0000.0001)  cg2d: iter=    53 ; resid.=  2.47154126538270E-05
(PID.TID 0000.0001)  cg2d: iter=    54 ; resid.=  2.01281822110866E-05
(PID.TID 0000.0001)  cg2d: iter=    55 ; resid.=  1.70606351346399E-05
(PID.TID 0000.0001)  cg2d: iter=    56 ; resid.=  1.44266918926151E-05
(PID.TID 0000.0001)  cg2d: iter=    57 ; resid.=  1.14663262700556E-05
(PID.TID 0000.0001)  cg2d: iter=    58 ; resid.=  8.44382990929535E-06
(PID.TID 0000.0001)  cg2d: iter=    59 ; resid.=  6.92054853757854E-06
(PID.TID 0000.0001)  cg2d: iter=    60 ; resid.=  5.71474782112769E-06
(PID.TID 0000.0001)  cg2d: iter=    61 ; resid.=  4.93453065976963E-06
(PID.TID 0000.0001)  cg2d: iter=    62 ; resid.=  3.87376129116281E-06
(PID.TID 0000.0001)  cg2d: iter=    63 ; resid.=  3.28709075317823E-06
(PID.TID 0000.0001)  cg2d: iter=    64 ; resid.=  2.72488246251814E-06
(PID.TID 0000.0001)  cg2d: iter=    65 ; resid.=  2.18747831572384E-06
(PID.TID 0000.0001)  cg2d: iter=    66 ; resid.=  1.75242743090884E-06
(PID.TID 0000.0001)  cg2d: iter=    67 ; resid.=  1.56395985675705E-06
(PID.TID 0000.0001)  cg2d: iter=    68 ; resid.=  1.24520348339405E-06
(PID.TID 0000.0001)  cg2d: iter=    69 ; resid.=  9.80177182420556E-07
(PID.TID 0000.0001)  cg2d: iter=    70 ; resid.=  8.00500529011207E-07
(PID.TID 0000.0001)  cg2d: iter=    71 ; resid.=  6.67532757585601E-07
(PID.TID 0000.0001)  cg2d: iter=    72 ; resid.=  5.90941805876749E-07
(PID.TID 0000.0001)  cg2d: iter=    73 ; resid.=  5.59032375456425E-07
(PID.TID 0000.0001)  cg2d: iter=    74 ; resid.=  4.92075432715418E-07
(PID.TID 0000.0001)  cg2d: iter=    75 ; resid.=  4.23811216864461E-07
(PID.TID 0000.0001)  cg2d: iter=    76 ; resid.=  3.50053135863767E-07
(PID.TID 0000.0001)  cg2d: iter=    77 ; resid.=  2.94828526153289E-07
(PID.TID 0000.0001)  cg2d: iter=    78 ; resid.=  2.38352278397273E-07
(PID.TID 0000.0001)  cg2d: iter=    79 ; resid.=  1.89232189484877E-07
(PID.TID 0000.0001)  cg2d: iter=    80 ; resid.=  1.28334364013188E-07
(PID.TID 0000.0001)  cg2d: iter=    81 ; resid.=  8.75741730049665E-08
(PID.TID 0000.0001)  cg2d: iter=    82 ; resid.=  6.53227452134394E-08
(PID.TID 0000.0001)  cg2d: iter=    83 ; resid.=  4.99810321018388E-08
(PID.TID 0000.0001)  cg2d: iter=    84 ; resid.=  3.93987516110279E-08
(PID.TID 0000.0001)  cg2d: iter=    85 ; resid.=  3.26010582213269E-08
(PID.TID 0000.0001)  cg2d: iter=    86 ; resid.=  2.58262043282053E-08
(PID.TID 0000.0001)  cg2d: iter=    87 ; resid.=  2.24868853602932E-08
(PID.TID 0000.0001)  cg2d: iter=    88 ; resid.=  1.84764017510977E-08
(PID.TID 0000.0001)  cg2d: iter=    89 ; resid.=  1.47625643540613E-08
(PID.TID 0000.0001)  cg2d: iter=    90 ; resid.=  1.12906604810290E-08
(PID.TID 0000.0001)  cg2d: iter=    91 ; resid.=  8.65259522294344E-09
(PID.TID 0000.0001)  cg2d: iter=    92 ; resid.=  6.51402843968706E-09
(PID.TID 0000.0001)  cg2d: iter=    93 ; resid.=  4.21880915001155E-09
(PID.TID 0000.0001)  cg2d: iter=    94 ; resid.=  3.21528981128660E-09
(PID.TID 0000.0001)  cg2d: iter=    95 ; resid.=  2.90805158054614E-09
(PID.TID 0000.0001)  cg2d: iter=    96 ; resid.=  2.60365394311109E-09
(PID.TID 0000.0001)  cg2d: iter=    97 ; resid.=  2.11982800210938E-09
(PID.TID 0000.0001)  cg2d: iter=    98 ; resid.=  1.71709000045830E-09
(PID.TID 0000.0001)  cg2d: iter=    99 ; resid.=  1.44873350773273E-09
(PID.TID 0000.0001)  cg2d: iter=   100 ; resid.=  1.20544461330919E-09
(PID.TID 0000.0001)  cg2d: iter=   101 ; resid.=  1.00010945673565E-09
(PID.TID 0000.0001)  cg2d: iter=   102 ; resid.=  8.20109535789006E-10
(PID.TID 0000.0001)  cg2d: iter=   103 ; resid.=  6.73064233154776E-10
(PID.TID 0000.0001)  cg2d: iter=   104 ; resid.=  5.43682211138857E-10
(PID.TID 0000.0001)  cg2d: iter=   105 ; resid.=  4.30420589360113E-10
(PID.TID 0000.0001)  cg2d: iter=   106 ; resid.=  3.32399811685992E-10
(PID.TID 0000.0001)  cg2d: iter=   107 ; resid.=  2.34077895519822E-10
(PID.TID 0000.0001)  cg2d: iter=   108 ; resid.=  1.67388061188298E-10
(PID.TID 0000.0001)  cg2d: iter=   109 ; resid.=  1.22061433792329E-10
(PID.TID 0000.0001)  cg2d: iter=   110 ; resid.=  9.02492676757361E-11
(PID.TID 0000.0001)  cg2d: iter=   111 ; resid.=  7.44539850360169E-11
(PID.TID 0000.0001)  cg2d: iter=   112 ; resid.=  5.76858696191082E-11
(PID.TID 0000.0001)  cg2d: iter=   113 ; resid.=  4.12831772129729E-11
(PID.TID 0000.0001)  cg2d: iter=   114 ; resid.=  2.93164418159430E-11
(PID.TID 0000.0001)  cg2d: iter=   115 ; resid.=  2.12261467040555E-11
(PID.TID 0000.0001)  cg2d: iter=   116 ; resid.=  1.56347038652183E-11
(PID.TID 0000.0001)  cg2d: iter=   117 ; resid.=  1.28305630743115E-11
(PID.TID 0000.0001)  cg2d: iter=   118 ; resid.=  1.03266157532908E-11
(PID.TID 0000.0001)  cg2d: iter=   119 ; resid.=  7.57398202918190E-12
(PID.TID 0000.0001)  cg2d: iter=   120 ; resid.=  5.94814536151193E-12
(PID.TID 0000.0001)  cg2d: iter=   121 ; resid.=  4.77767928418125E-12
(PID.TID 0000.0001)  cg2d: iter=   122 ; resid.=  3.80510842637925E-12
(PID.TID 0000.0001)  cg2d: iter=   123 ; resid.=  2.80315953253706E-12
(PID.TID 0000.0001)  cg2d: iter=   124 ; resid.=  1.99287003954753E-12
(PID.TID 0000.0001)  cg2d: iter=   125 ; resid.=  1.48108392985770E-12
(PID.TID 0000.0001)  cg2d: iter=   126 ; resid.=  1.12651800185735E-12
(PID.TID 0000.0001)  cg2d: iter=   127 ; resid.=  8.14169955141286E-13
(PID.TID 0000.0001)  cg2d: iter=   128 ; resid.=  5.65422507613322E-13
(PID.TID 0000.0001)  cg2d: iter=   129 ; resid.=  4.13922644089162E-13
(PID.TID 0000.0001)  cg2d: iter=   130 ; resid.=  3.14428126179680E-13
(PID.TID 0000.0001)  cg2d: iter=   131 ; resid.=  2.44869579902286E-13
(PID.TID 0000.0001)  cg2d: iter=   132 ; resid.=  1.86440047227050E-13
(PID.TID 0000.0001)  cg2d: iter=   133 ; resid.=  1.31377412436846E-13
(PID.TID 0000.0001)  cg2d: iter=   134 ; resid.=  9.24649530216261E-14
DEBUG_STATS_RL:    cg2d_x (SOLVE_FOR_PRESSURE)  min= -1.64226479901393E+01
DEBUG_STATS_RL:    cg2d_x (SOLVE_FOR_PRESSURE)  max=  1.02863035697676E+01
DEBUG_STATS_RL:    cg2d_x (SOLVE_FOR_PRESSURE) mean= -1.58842351534619E+00
DEBUG_STATS_RL:    cg2d_x (SOLVE_FOR_PRESSURE) S.D.=  6.10944139014734E+00
(PID.TID 0000.0001)      cg2d_init_res =   5.21221377267102E-01
(PID.TID 0000.0001)      cg2d_iters(min,last) =      -1     134
(PID.TID 0000.0001)      cg2d_last_res =   9.24649530216261E-14
(PID.TID 0000.0001) // =======================================================
(PID.TID 0000.0001) // Begin MONITOR dynamic field statistics
(PID.TID 0000.0001) // =======================================================
(PID.TID 0000.0001) %MON time_tsnumber                =                    20
(PID.TID 0000.0001) %MON time_secondsf                =   1.7280000000000E+06
(PID.TID 0000.0001) %MON dynstat_eta_max              =   1.0485528613423E+00
(PID.TID 0000.0001) %MON dynstat_eta_min              =  -1.6740721702488E+00
(PID.TID 0000.0001) %MON dynstat_eta_mean             =  -1.4436057838212E-03
(PID.TID 0000.0001) %MON dynstat_eta_sd               =   5.4722795680691E-01
(PID.TID 0000.0001) %MON dynstat_eta_del2             =   1.8187848360949E-03
(PID.TID 0000.0001) %MON dynstat_uvel_max             =   1.6151842483670E-01
(PID.TID 0000.0001) %MON dynstat_uvel_min             =  -1.3672104596229E-01
(PID.TID 0000.0001) %MON dynstat_uvel_mean            =  -8.5556863931549E-04
(PID.TID 0000.0001) %MON dynstat_uvel_sd              =   1.4965201011627E-02
(PID.TID 0000.0001) %MON dynstat_uvel_del2            =   9.4781014388278E-05
(PID.TID 0000.0001) %MON dynstat_vvel_max             =   1.4074058527286E-01
(PID.TID 0000.0001) %MON dynstat_vvel_min             =  -1.1797038664314E-01
(PID.TID 0000.0001) %MON dynstat_vvel_mean            =   4.1485302077496E-04
(PID.TID 0000.0001) %MON dynstat_vvel_sd              =   1.0028794832455E-02
(PID.TID 0000.0001) %MON dynstat_vvel_del2            =   9.1188222548257E-05
(PID.TID 0000.0001) %MON dynstat_wvel_max             =   1.4685519914381E-04
(PID.TID 0000.0001) %MON dynstat_wvel_min             =  -1.6639228584474E-04
(PID.TID 0000.0001) %MON dynstat_wvel_mean            =   2.4949637866282E-22
(PID.TID 0000.0001) %MON dynstat_wvel_sd              =   1.9562179239886E-05
(PID.TID 0000.0001) %MON dynstat_wvel_del2            =   2.2292319840929E-07
(PID.TID 0000.0001) %MON dynstat_theta_max            =   2.9852898492071E+01
(PID.TID 0000.0001) %MON dynstat_theta_min            =  -2.0169486273256E+00
(PID.TID 0000.0001) %MON dynstat_theta_mean           =   3.6302247853682E+00
(PID.TID 0000.0001) %MON dynstat_theta_sd             =   4.4157775073493E+00
(PID.TID 0000.0001) %MON dynstat_theta_del2           =   4.8537848122212E-03
(PID.TID 0000.0001) %MON dynstat_salt_max             =   3.7451524689747E+01
(PID.TID 0000.0001) %MON dynstat_salt_min             =   2.9775457944050E+01
(PID.TID 0000.0001) %MON dynstat_salt_mean            =   3.4727967172972E+01
(PID.TID 0000.0001) %MON dynstat_salt_sd              =   2.9622487800572E-01
(PID.TID 0000.0001) %MON dynstat_salt_del2            =   1.0111918656593E-03
(PID.TID 0000.0001) %MON dynstat_sst_max              =   2.9852898492071E+01
(PID.TID 0000.0001) %MON dynstat_sst_min              =  -2.0169486273256E+00
(PID.TID 0000.0001) %MON dynstat_sst_mean             =   1.8696442135834E+01
(PID.TID 0000.0001) %MON dynstat_sst_sd               =   9.0564405387600E+00
(PID.TID 0000.0001) %MON dynstat_sst_del2             =   2.6370467628788E-02
(PID.TID 0000.0001) %MON dynstat_sss_max              =   3.7439837767537E+01
(PID.TID 0000.0001) %MON dynstat_sss_min              =   2.9775457944050E+01
(PID.TID 0000.0001) %MON dynstat_sss_mean             =   3.4862947533657E+01
(PID.TID 0000.0001) %MON dynstat_sss_sd               =   9.7207386787154E-01
(PID.TID 0000.0001) %MON dynstat_sss_del2             =   7.9837430228756E-03
(PID.TID 0000.0001) %MON forcing_qnet_max             =   4.2833727010091E+02
(PID.TID 0000.0001) %MON forcing_qnet_min             =  -1.7906146952311E+02
(PID.TID 0000.0001) %MON forcing_qnet_mean            =  -1.6172889331431E+01
(PID.TID 0000.0001) %MON forcing_qnet_sd              =   1.0557973223763E+02
(PID.TID 0000.0001) %MON forcing_qnet_del2            =   1.0083982826333E+00
(PID.TID 0000.0001) %MON forcing_qsw_max              =   0.0000000000000E+00
(PID.TID 0000.0001) %MON forcing_qsw_min              =   0.0000000000000E+00
(PID.TID 0000.0001) %MON forcing_qsw_mean             =   0.0000000000000E+00
(PID.TID 0000.0001) %MON forcing_qsw_sd               =   0.0000000000000E+00
(PID.TID 0000.0001) %MON forcing_qsw_del2             =   0.0000000000000E+00
(PID.TID 0000.0001) %MON forcing_empmr_max            =   8.0917880040943E-05
(PID.TID 0000.0001) %MON forcing_empmr_min            =  -7.6474533254138E-05
(PID.TID 0000.0001) %MON forcing_empmr_mean           =   9.2566665115046E-07
(PID.TID 0000.0001) %MON forcing_empmr_sd             =   2.8597523558275E-05
(PID.TID 0000.0001) %MON forcing_empmr_del2           =   3.6295745305298E-07
(PID.TID 0000.0001) %MON forcing_fu_max               =   2.7799457907677E-01
(PID.TID 0000.0001) %MON forcing_fu_min               =  -1.7257433235645E-01
(PID.TID 0000.0001) %MON forcing_fu_mean              =   1.6218936014442E-02
(PID.TID 0000.0001) %MON forcing_fu_sd                =   9.0419897423294E-02
(PID.TID 0000.0001) %MON forcing_fu_del2              =   6.9713620396268E-04
(PID.TID 0000.0001) %MON forcing_fv_max               =   2.2028753260771E-01
(PID.TID 0000.0001) %MON forcing_fv_min               =  -1.7417170107365E-01
(PID.TID 0000.0001) %MON forcing_fv_mean              =  -5.5199413663658E-03
(PID.TID 0000.0001) %MON forcing_fv_sd                =   4.7048267643353E-02
(PID.TID 0000.0001) %MON forcing_fv_del2              =   4.7981650683968E-04
(PID.TID 0000.0001) %MON trAdv_CFL_u_max              =   4.3767057367433E-02
(PID.TID 0000.0001) %MON trAdv_CFL_v_max              =   2.6404282778754E-02
(PID.TID 0000.0001) %MON trAdv_CFL_w_max              =   5.8406561547251E-02
(PID.TID 0000.0001) %MON advcfl_uvel_max              =   4.2226546462887E-02
(PID.TID 0000.0001) %MON advcfl_vvel_max              =   2.7343638510905E-02
(PID.TID 0000.0001) %MON advcfl_wvel_max              =   5.0370882277710E-02
(PID.TID 0000.0001) %MON advcfl_W_hf_max              =   5.5617849181638E-02
(PID.TID 0000.0001) %MON pe_b_mean                    =   3.8319583107109E-04
(PID.TID 0000.0001) %MON ke_max                       =   1.4672069109890E-02
(PID.TID 0000.0001) %MON ke_mean                      =   1.4731028740145E-04
(PID.TID 0000.0001) %MON ke_vol                       =   1.3226782436723E+18
(PID.TID 0000.0001) %MON vort_r_min                   =  -2.7750208833512E-07
(PID.TID 0000.0001) %MON vort_r_max                   =   4.6645133409373E-07
(PID.TID 0000.0001) %MON vort_a_mean                  =  -2.5274807099014E-05
(PID.TID 0000.0001) %MON vort_a_sd                    =   7.3604206104264E-05
(PID.TID 0000.0001) %MON vort_p_mean                  =  -3.1845655423448E-05
(PID.TID 0000.0001) %MON vort_p_sd                    =   1.3162370878534E-04
(PID.TID 0000.0001) %MON surfExpan_theta_mean         =   1.2564871692776E-07
(PID.TID 0000.0001) %MON surfExpan_salt_mean          =   1.2154747844938E-07
(PID.TID 0000.0001) // =======================================================
(PID.TID 0000.0001) // End MONITOR dynamic field statistics
(PID.TID 0000.0001) // =======================================================
(PID.TID 0000.0001) // =======================================================
(PID.TID 0000.0001) // Field Current uVel   at iteration         20
(PID.TID 0000.0001) // CMIN =         -1.367210459622874E-01
(PID.TID 0000.0001) // CMAX =          1.615184248367032E-01
(PID.TID 0000.0001) // CINT =          1.104590632588854E-02
(PID.TID 0000.0001) // SYMBOLS (CMIN->CMAX): -abcdefghijklmnopqrstuvwxyz+
(PID.TID 0000.0001) //                  0.0: .
(PID.TID 0000.0001) // RANGE I (Lo:Hi:Step):(     1:    90:     1)
(PID.TID 0000.0001) // RANGE J (Lo:Hi:Step):(    40:     1:    -1)
(PID.TID 0000.0001) // RANGE K (Lo:Hi:Step):(   1:   1:   1)
(PID.TID 0000.0001) // =======================================================
(PID.TID 0000.0001) K =   1
(PID.TID 0000.0001)                I=10      I=20      I=30      I=40      I=50      I=60      I=70      I=80      I=90
(PID.TID 0000.0001) |--J--|123456789|123456789|123456789|123456789|123456789|123456789|123456789|123456789|123456789|
(PID.TID 0000.0001)     40 klmll..llmmmnoonnnm...................................................................kkjk
(PID.TID 0000.0001)     39 mnooppppoooonn....m......................................................lll.........kjkkl
(PID.TID 0000.0001)     38 nnoommmmmmmmm............................................................llll.......klmmmm
(PID.TID 0000.0001)     37 nnm...................................................................l....kl....lmll..nnn
(PID.TID 0000.0001)     36 nm..........................................llm.....................llkjjiiikk..kmmnoooppo
(PID.TID 0000.0001)     35 nm..................................lll...lllmml....llmn............ll.....lkklllnopoooppn
(PID.TID 0000.0001)     34 ....................................kkl..lllllmm..kklnpqp...................mlnopqrrrqpo..
(PID.TID 0000.0001)     33 .....................................kkjkkkllmnnnnnopqrsrpn..................opqstuutronm.
(PID.TID 0000.0001)     32 .....................................jjkklmmnppopqqrstuutrp.................qstvvuttqomll.
(PID.TID 0000.0001)     31 .....................................noooopqpqqqrsttuvvvurp...............nuyyzyvtsrpnmm..
(PID.TID 0000.0001)     30 ....................................suvuuuvuttttuvvuvvuusqo.............nswyxxwvutrqponm..
(PID.TID 0000.0001)     29 ..................................ptwwwxxxxwwvvuuuuuuutsqpon............tutsrqpppponnmmm..
(PID.TID 0000.0001)     28 ................................moqrrrstttuttttsrrrsssrponmmm..........ppponnnmlllllkkll..
(PID.TID 0000.0001)     27 ...............m...............kkkkklllnopqpppppooopqpnnlkkkkm....lkl..noonnnnmkjijjjj....
(PID.TID 0000.0001)     26 ...............lk............icfffffghhkllmmllllkkjklkkjiiiiikml..kjijllmnmmllkjihihgg....
(PID.TID 0000.0001)     25 ...............jji....lm....hccdcaacdeefffggggggfffgffffeefghikll....ihhkjiihgggggffee....
(PID.TID 0000.0001)     24 .............ighhhi..ihl....fh..ga-bccbaabdcddffffeeedcddbceeghijjij..iggigfgffeefffgh....
(PID.TID 0000.0001)     23 .............ieffgh..jgj....eh...ffffeedddefgghijjiijjiiiggghiiiiiggh.....hjihhfehhjkl....
(PID.TID 0000.0001)     22 m............hfffegjjkjk....j..nmmlkjijjihijjkjjllllmmlmljkklmmmkkiijm.......jiggjkklmklln
(PID.TID 0000.0001)     21 kik.........iijihiikllmlk......mopmllmmlkkkkmmkjlllllnllmlkjknnmklkkln.........jikkkklllmn
(PID.TID 0000.0001)     20 kil........kklmnlkklnnnlk.........mmnonnmmmmnmlknnmlmmklnmkilomlkkjkln..........jjkkkkklmm
(PID.TID 0000.0001)     19 jij........nnnornjjkmmmkkil....mn......noonoonnnoolmnmlmnljjlmkjjjiikm............jkjjllmn
(PID.TID 0000.0001)     18 jhj........olklnihghihjjjiklloplm....lonnnopooonnnmlmnmmmjjjkjiijiggjml...........jkjkmkjk
(PID.TID 0000.0001)     17 hhj..........gggeeddghiiiikkmnn......lmlmlmmmllllmmlmmmlkiiijhhihgfgjml..........mljjjlhgh
(PID.TID 0000.0001)     16 ggh.......n..jhhhgeehlkiijllmm........llllllkkllmmlmmmmljiiiiiijihhijkkm.........mlkihigfg
(PID.TID 0000.0001)     15 gffh.....mk..nnnolmlknnkjkllm..........llmmmmmnoonnooonmlkkljjklljiiiihij.......nnnljjihhg
(PID.TID 0000.0001)     14 hgee.....jhjnpqqqoqqpplkkjjjj..........nllnopppppqqrsrppqoonlkmnlkjjjihhj......nooonmmkiii
(PID.TID 0000.0001)     13 kigg.....nlmoonnonnqpmkmmljhg..........poooppppppqrrrsrstsrrrppommmmllkjk.....mnoooooonnll
(PID.TID 0000.0001)     12 onljjjfoqsqponllmmmmnnnoomkjkkllll.....qqponnnoooppppppqrsrrtsroooppnmlk......oqqqqqrqrqqp
(PID.TID 0000.0001)     11 rqpooqotxzyvttqpqrrqoqqqqpoooonnnll...oqqpn..nnnnmnnnnnnnoppqqppoopqpoml.....pqstutstsssrr
(PID.TID 0000.0001)     10 ssrrsvvxxxyxx++yxwxwuttttsrrqqpoonll..pppom..pnmllllmmnmlkmooooqpoopponm...lnsqrtvvuuutuut
(PID.TID 0000.0001)      9 uttttvvvuttttuxxvvvvvutsstutstsrqqomlnpooo..looonmmmmmoponmmnnnoooonnnnl..llnrrrrstuuustvv
(PID.TID 0000.0001)      8 tsstttttrqrrrqqqqrqqsttrrrssttttttututsrqonmnoppqqrqqqqqrrqooooponnnnnnm..mmlnoppqrsssqpqs
(PID.TID 0000.0001)      7 pppqqppqqpnopppnnooooqqqqpppprrsssrruvvtsqonnopppqrstuusrrrooppqpoppoonnlmoommmnnmnppponno
(PID.TID 0000.0001)      6 mmmmmmmnooonnnnnnmmlmmnnnoooopppqqpmnqqrrsrpooppoooopqssrrqoopqqqpqqqppponnponnmmmmmnonmmm
(PID.TID 0000.0001)      5 lllmmmnmmmnnmmmmmmlllllmmmnnnnnnnnnmllmnopqqpponnnmmmmnopppoopppppppqppponmmmmllmmmmmmmmmm
(PID.TID 0000.0001)      4 lllllmmmmmmmmmmmmllmmmmmmnnnnnnmmmmmmmlklmnnonnmllllmmmnnnooooooooooonnnnm...mlllllllmmmll
(PID.TID 0000.0001)      3 mmmllmmmmm.............................mmmmmmmmmlllllmmmmmmmmmmnnmmmmmmll...lmmmmlllllmmmm
(PID.TID 0000.0001)      2 ...........................................mmmmmmmmmmmmmlllllmmm...lml......mmmmmmmllll...
(PID.TID 0000.0001)      1 ..........................................................................................
(PID.TID 0000.0001) // =======================================================
(PID.TID 0000.0001) // END OF FIELD                                          =
(PID.TID 0000.0001) // =======================================================
(PID.TID 0000.0001) 
(PID.TID 0000.0001) // =======================================================
(PID.TID 0000.0001) // Field Current vVel   at iteration         20
(PID.TID 0000.0001) // CMIN =         -1.179703866431384E-01
(PID.TID 0000.0001) // CMAX =          1.407405852728649E-01
(PID.TID 0000.0001) // CINT =          9.581887848740863E-03
(PID.TID 0000.0001) // SYMBOLS (CMIN->CMAX): -abcdefghijklmnopqrstuvwxyz+
(PID.TID 0000.0001) //                  0.0: .
(PID.TID 0000.0001) // RANGE I (Lo:Hi:Step):(     1:    90:     1)
(PID.TID 0000.0001) // RANGE J (Lo:Hi:Step):(    40:     1:    -1)
(PID.TID 0000.0001) // RANGE K (Lo:Hi:Step):(   1:   1:   1)
(PID.TID 0000.0001) // =======================================================
(PID.TID 0000.0001) K =   1
(PID.TID 0000.0001)                I=10      I=20      I=30      I=40      I=50      I=60      I=70      I=80      I=90
(PID.TID 0000.0001) |--J--|123456789|123456789|123456789|123456789|123456789|123456789|123456789|123456789|123456789|
(PID.TID 0000.0001)     40 lmopo.nnnnnnnn...kj..................................................................kklll
(PID.TID 0000.0001)     39 lmmmmllkkklmm...........................................................lllm........jklmmm
(PID.TID 0000.0001)     38 mmm.......................................................................lmm......nm.mmmm
(PID.TID 0000.0001)     37 lm...................................................................mm...kmm...lmnnm.nmlk
(PID.TID 0000.0001)     36 lm.........................................oppm....................llk....jjlm.jjklkkjikll
(PID.TID 0000.0001)     35 ...................................mmnm..nnoppon...klnoo...................ihhhhhiiihhil..
(PID.TID 0000.0001)     34 ....................................kkl.mnnmnnmm.kjijklmm...................hefgeeffeehi..
(PID.TID 0000.0001)     33 ....................................liijklkjkljiihgggghijkl.................jhhgcbcdddegk.
(PID.TID 0000.0001)     32 ....................................liffghhhhihfgfffffghghk................qmiggfdeffefi..
(PID.TID 0000.0001)     31 ....................................igedddeeffedeeeefghihgj..............kigdcdeeefggghk..
(PID.TID 0000.0001)     30 ...................................jfdbbbbaabddddeefhiijigh............lghiigggghihijjjk..
(PID.TID 0000.0001)     29 .................................lkjgebacecbdeefgfghjkkkkihi...........ljjjjihhjjjjkkklm..
(PID.TID 0000.0001)     28 ...............................mlkkkkigfhihghihijkklmnnmlkjii.........mllllmlklnnmmnmm....
(PID.TID 0000.0001)     27 ..............lk..............mnnmmnmllmnmllkkkkmmmmnoonnmlkjk...lmpr.nmmnnnnmnoopoonm....
(PID.TID 0000.0001)     26 ..............llm...........joqpmlmmlkmnnnmmlklllmllmnmmmmklmmmn....rpommnnnnmnoppnmmk....
(PID.TID 0000.0001)     25 ..............mmpp...kkk...klo.lgghhhijkkkkjiiijjjjiiiiihijlmmmnm....lkikijlkkkmonlkjh....
(PID.TID 0000.0001)     24 ............mlmoqsq.lkkk...jmo..-bcceeghhhhhhhikllkjhhgfhjkkkjjhhhkl.....fiiiiknnlkjil....
(PID.TID 0000.0001)     23 ............kllmnmk.jigh...jn...eghiijjkkkllmmoqqrrqqrrsttsrpomkllnnn.......kmpqpnnors....
(PID.TID 0000.0001)     22 o...........ilkljgeecegk......mnmlnoommllklmlmnopqqqrrssronoonmnooomkj........mmmmoprspomm
(PID.TID 0000.0001)     21 kji........jjkkhgghhhjlnn......k.lmmmmmmlklmmnnonnnonoppponnmkklllmmlk.........jknoonnnmkk
(PID.TID 0000.0001)     20 ijl.......lkjiifehjlnnonm......m......mnlllkllllmmoopqqpqqqpoppponnpqp...........ppooonnmk
(PID.TID 0000.0001)     19 kjk.......qprstrpnnpqsspnkl...kkk.....nnmlkkjjjjkkkmppooopppprrpnmmnpn...........onmmlklnn
(PID.TID 0000.0001)     18 nll.......q.xwyzxspppqrqomllknp.....llnnnnnmmllllljkmnnnnnoppqrqpnmmppl..........ooooommoq
(PID.TID 0000.0001)     17 qon.......o.usrsqommljlllkkllm.......mlllmmmnnmlllkjkmmlllmnpooponllopn.........jlmnorsppq
(PID.TID 0000.0001)     16 qqp......po.mmkkkfcghfgijkkkk.........mkjjjjjkkjjiiijkjjjkmmmmnomlllnpqo........kkllnqrqpp
(PID.TID 0000.0001)     15 oqro....mqp.ijiiieemkeegillkj.........lkjhggghihgfgghiihgikijnnnlkllnprqn......ljklklmnopo
(PID.TID 0000.0001)     14 oppo....jkmkjjiihfinlhgimnmll.........jlkjihhiihghhgghihhijhkoollkmmnnqqn.....lljlmkjlmopo
(PID.TID 0000.0001)     13 qpoo....gjnnkklllkkllkjmoolkl.........kmllkkkkjjjjjhhijjjjjkmolmnnnnnnpo.....lmmlmnllnmpqp
(PID.TID 0000.0001)     12 rrpnkhhllmoolloooonooooqrponmmmmmm....mnnmk.lmmnnnlkkllmmlmnomlmqqoonopn.....mommopnonopqr
(PID.TID 0000.0001)     11 ttrpoqrqpqrtrqtuvwvuttttttsrpoppooo..moppol.llnpponnnnmoppqqqomostsqppom....korrqqrqqrqqrt
(PID.TID 0000.0001)     10 vvuutuusrpprrtwz+zxwvvvvwvuusrqqooqr.moqqo..hjmnopppppopqrttsqpsvwusqqpn..llmqttttuutuvutu
(PID.TID 0000.0001)      9 vvwxxxvutqpqstvutsttuvwwwvvvtsstsruvqpqrpn.nmnoprrqqrrqstvwvtrrsuvtssroo.lmmpsuwxwwvuvwvtu
(PID.TID 0000.0001)      8 suvvuutsrqqrsssqoooqstuuuttsrrssstwxusssqoopppqsvvvvvutvvvvvtrrrtttsssqp.mmnqsssstussuusqq
(PID.TID 0000.0001)      7 pqpooooopoooppppoonnmnoqqppoopqrrrtsqpqpooqrrrrtvuuutsrrrqqrqpppqrssssrrrrrsttrppppopqsrpp
(PID.TID 0000.0001)      6 nmlllllmnnnnnnmnnonlklnnmmmnopppooponnnmmmpqrrsttssrpnmlmmoqqpopqrrrrsssttsqpooonnnnnoppon
(PID.TID 0000.0001)      5 lkjkkkllmlkllkklmmllkkkjiijklmmmmmmmnnmlllnoopqrqoonlkjjklnoonnooppppqqpnn..llmmmmmlmmmlll
(PID.TID 0000.0001)      4 jiiijjjjjj............................kkklllllmmmllkkjkklmnnnmmmnnnnnnmkk...llllllllkkkjjj
(PID.TID 0000.0001)      3 ..........................................kkkkllkkkjjjjlmmmllkkk..llll.....lmmllkkkkkkj...
(PID.TID 0000.0001)      2 ..........................................................................................
(PID.TID 0000.0001)      1 ..........................................................................................
(PID.TID 0000.0001) // =======================================================
(PID.TID 0000.0001) // END OF FIELD                                          =
(PID.TID 0000.0001) // =======================================================
(PID.TID 0000.0001) 
(PID.TID 0000.0001) // =======================================================
(PID.TID 0000.0001) // Field Current theta  at iteration         20
(PID.TID 0000.0001) // CMIN =         -2.016948627325627E+00
(PID.TID 0000.0001) // CMAX =          2.985289849207104E+01
(PID.TID 0000.0001) // CINT =          1.180364708125803E+00
(PID.TID 0000.0001) // SYMBOLS (CMIN->CMAX): -abcdefghijklmnopqrstuvwxyz+
(PID.TID 0000.0001) //                  0.0: .
(PID.TID 0000.0001) // RANGE I (Lo:Hi:Step):(     1:    90:     1)
(PID.TID 0000.0001) // RANGE J (Lo:Hi:Step):(    40:     1:    -1)
(PID.TID 0000.0001) // RANGE K (Lo:Hi:Step):(   1:   1:   1)
(PID.TID 0000.0001) // =======================================================
(PID.TID 0000.0001) K =   1
(PID.TID 0000.0001)                I=10      I=20      I=30      I=40      I=50      I=60      I=70      I=80      I=90
(PID.TID 0000.0001) |--J--|123456789|123456789|123456789|123456789|123456789|123456789|123456789|123456789|123456789|
(PID.TID 0000.0001)     40 aabcdbaaa----abcdddbbbbbbbbbbbbbbbbbbbbbbbbbbbbbbbbbbbbbbbbbbbbbbbbbbbbbbbbbbbbbbbbbbbbaaa
(PID.TID 0000.0001)     39 bccddccbba----bbbedbbbbbbbbbbbbbbbbbbbbbbbbbbbbbbbbbbbbbbbbbbbbbbbbbbbbb----bbbbbbbbbbaaab
(PID.TID 0000.0001)     38 effeeecdddbbbbbbbbbbbbbbbbbbbbbbbbbbbbbbbbbbbbbbbbbbbbbbbbbbbbbbbbbbbbbb-----bbbbbbcaaabdd
(PID.TID 0000.0001)     37 gghbbbbbbbbbbbbbbbbbbbbbbbbbbbbbbbbbbbbbbbbbbbbbbbbbbbbbbbbbbbbbbbbbbbcbbbbabbbbdccdfbdeef
(PID.TID 0000.0001)     36 hhbbbbbbbbbbbbbbbbbbbbbbbbbbbbbbbbbbbbbbbbbcbaabbbbbbbbbbbbbbbbbbbbdcccbbbbccdbddfgghhhhhh
(PID.TID 0000.0001)     35 ggbbbbbbbbbbbbbbbbbbbbbbbbbbbbbbbbba--abbbccdccbbbbeeffgbbbbbbbbbbbbbbbbbbcceeeeefghiijiih
(PID.TID 0000.0001)     34 bbbbbbbbbbbbbbbbbbbbbbbbbbbbbbbbbbb---abcdddddddbeeeffgggbbbbbbbbbbbbbbbbbbcbceffghijjjjbb
(PID.TID 0000.0001)     33 bbbbbbbbbbbbbbbbbbbbbbbbbbbbbbbbbbbb-abbccdeedeeeffffggghhibbbbbbbbbbbbbbbbbbbehjjkkkkkkkb
(PID.TID 0000.0001)     32 bbbbbbbbbbbbbbbbbbbbbbbbbbbbbbbbbbbbabccdeeffffgghhhhhhiiijbbbbbbbbbbbbbbbbccceklmmmmlllkb
(PID.TID 0000.0001)     31 bbbbbbbbbbbbbbbbbbbbbbbbbbbbbbbbbbbbefghhhiiiiijjjjjkkkklkkbbbbbbbbbbbbbbhilkilnoonnnmmmbb
(PID.TID 0000.0001)     30 bbbbbbbbbbbbbbbbbbbbbbbbbbbbbbbbbbbmlllllmmmmmlllmmmmnnnnmlbbbbbbbbbbbblnpqqqqqqqpppooonbb
(PID.TID 0000.0001)     29 bbbbbbbbbbbbbbbbbbbbbbbbbbbbbbbbbppppppoopooooooooooppppoonmbbbbbbbbbbbrrrrrrrrqqqqqppppbb
(PID.TID 0000.0001)     28 bbbbbbbbbbbbbbbbbbbbbbbbbbbbbbboqrqrrqqqrrrrrrrqqrrqrrrqqpooobbbbbbbbbtsssssssrrrrrrqqqpbb
(PID.TID 0000.0001)     27 bbbbbbbbbbbbbbvvbbbbbbbbbbbbbbrsssstttttttttttttttttttssrrqqqqbbbsstubuuuuuuuuttttsssrbbbb
(PID.TID 0000.0001)     26 bbbbbbbbbbbbbbvuubbbbbbbbbbbutuuuuuvvvvvvvvvvvvuvvvuutttssrrrstubtuvwwvvvvvvvvvuuttsrrbbbb
(PID.TID 0000.0001)     25 bbbbbbbbbbbbbbvvvxbbbwwxbbbuuvwwwwwxxxxxxwwwwwwvwvvvuuuuutttuuvwwbbbxwwwwwwvvvvvvutsrqbbbb
(PID.TID 0000.0001)     24 bbbbbbbbbbbbwwwwxyybwwxxbbbwwwbxxxyyyxxxxxxwwwwwwwwvvvvvvvvvvwwxxwvvbxwwwwwwwwwvvvuutrbbbb
(PID.TID 0000.0001)     23 bbbbbbbbbbbbxwxxyyzbxxyybbbxxxbbyyyyyyyyxxxxxxxxxxxxxxxxwwwxxxxwwwwwwbbbbwwxxxwwwwwvvvbbbb
(PID.TID 0000.0001)     22 wbbbbbbbbbbbxxyyyyyyyyyybbbxxbyyzzzzzzzzzzzzyyyyyyyyyyxwwwwxxxxwwwwwxwbbbbbbyxxxxxxxxxxxxw
(PID.TID 0000.0001)     21 xwxbbbbbbbbxxxxyyzzyzzz++bbbbbzyzzzzzzz++zzzyyyyyyyyyyxxwwwwwwvvvvvvvvbbbbbbbbyyyyyyyyyyxx
(PID.TID 0000.0001)     20 xwwbbbbbbbyyyyyyyzzzzzzz+bbbbbbzbzzzzz++++zzzzzzzyyyyyxxxwwxxwvvwvvvvubbbbbbbbbyyyyyyyyxwx
(PID.TID 0000.0001)     19 wvvbbbbbbbyzzyyxxyyzzzzzzzzbbbzzzbbbbb++++++z++z+zzzyyyyxxxxxwwwwwwwvvbbbbbbbbbbbyyyxxwwwx
(PID.TID 0000.0001)     18 vutbbbbbbbzzzyyyxyyzyyzzzzzzzz+zzbbb++++++++++++++++zzzyyyyxxwwwvvwvvuubbbbbbbbbbyyxxwvvww
(PID.TID 0000.0001)     17 uutbbbbbbbzbzyyyyyyyyyyyyyyyyzzbbbbbzzzzzzzzzzzzzzzzzzyyyyyxxwwvvuvuuuubbbbbbbbbyyyyxwuuvu
(PID.TID 0000.0001)     16 utsbbbbbbzybzyyyyxxxxxxxwxxxxybbbbbbbyyyyyyyyyyzyyyyyyyyyyyyyxwwvvvuutttbbbbbbbbyyyyxwvuvu
(PID.TID 0000.0001)     15 utsrbbbbxyybxxxxxwwwwwwwvvwwxbbbbbbbbbxxxxxxxxxxxxxxyyxxxyyyxxwwwvuuutsssbbbbbbxxxxxxxwwvu
(PID.TID 0000.0001)     14 utsqbbbbxyxxxxwwwxwvvuuuuuuuubbbbbbbbbwwwwwwwwwwwwwwwwwwxxxxxwwwvvuutssssbbbbbvwxwwwxwwwvu
(PID.TID 0000.0001)     13 tttsbbbbwxwvvvuuuvvvuuutsttttbbbbbbbbbvvvvvvvvvuuuuuuvvvvvwwwwvvvuuutsssqbbbbvwwwvvvwwvvvu
(PID.TID 0000.0001)     12 sstsststuuttttssssssstsrrrsssrqrrqbbbbuvutttttssssssssssstuuuttttsstssrqbbbbbuvvutttuutttt
(PID.TID 0000.0001)     11 qpqrssssrrrrrrrqqppoprqppqpppqqqpqqbbtttsssbrrqqqrrrrqqqqrrrqqqrrqrrrrqpbbbbprtssrrrrqqqqq
(PID.TID 0000.0001)     10 mmmnopppooooooooonnnnnnmmmmmmnnnoooobqrqqqqbpqpppqpoppppppponooopoooppoobbonopppooooooonnm
(PID.TID 0000.0001)      9 jiiijjjjiijjijjjjijjjjiiijjjijkllmnmmnoooobnnnnoooonnnnnnnmmllmmmmllmmmmbmmmnnmmllkjkkkjij
(PID.TID 0000.0001)      8 ffffffggffgghhgggfgghhgggghhhiijjjkkjkllllllkllllllmmllllkkjjjkkkkjjkkljbkkkjjjiihhgggffef
(PID.TID 0000.0001)      7 ddddeeeffeeefgeeeeeeeeeeeffffggghgghhhijjjjjjjkkjiiihhiiiiiihhiiiiiiijiiijjiihggfeeeeedddd
(PID.TID 0000.0001)      6 cccddddeeddddeedeeddeeeeeeeddeeeeeeffffghhhhhhiihffeeefefgfffffghhhhhhhhhhhgffeeddcccccccc
(PID.TID 0000.0001)      5 cccdddddddddddddddddddddccddddeeeeeeeeeeefffeeefedccccccddddddeeeeffffeeeeeeddcccccccbcbbc
(PID.TID 0000.0001)      4 cccdcccbbccbbccccccccbbbbbbbccccccbbcccccccccccccccccccccccccccccccddcccccbbaaabbbcccbbbcc
(PID.TID 0000.0001)      3 bbbbbaaaaabbbbbbbbbbbbbbbbbbbbbbbbbbbbbbbbbbbbbbbbbbbbbbbaaabbbbbbbbbbbbbbbaaaaaabbcccbbbb
(PID.TID 0000.0001)      2 bbbbbbbbbbbbbbbbbbbbbbbbbbbbbbbbbbbbbbbbbbbbbbbbbbbaaaaaaaaaaaaabbaaaabbbbbaaaaaabbbbbbbbb
(PID.TID 0000.0001)      1 bbbbbbbbbbbbbbbbbbbbbbbbbbbbbbbbbbbbbbbbbbbbbbbbbbbbbbbbbbbbbbbbbbbbbbbbbbbbbbbbbbbbbbbbbb
(PID.TID 0000.0001) // =======================================================
(PID.TID 0000.0001) // END OF FIELD                                          =
(PID.TID 0000.0001) // =======================================================
(PID.TID 0000.0001) 
(PID.TID 0000.0001) // =======================================================
(PID.TID 0000.0001) // Field Current etaN   at iteration         20
(PID.TID 0000.0001) // CMIN =         -1.674072170248758E+00
(PID.TID 0000.0001) // CMAX =          1.048552861342260E+00
(PID.TID 0000.0001) // CINT =          1.008379641330007E-01
(PID.TID 0000.0001) // SYMBOLS (CMIN->CMAX): -abcdefghijklmnopqrstuvwxyz+
(PID.TID 0000.0001) //                  0.0: .
(PID.TID 0000.0001) // RANGE I (Lo:Hi:Step):(    -1:    92:     1)
(PID.TID 0000.0001) // RANGE J (Lo:Hi:Step):(    42:    -1:    -1)
(PID.TID 0000.0001) // RANGE K (Lo:Hi:Step):(   1:   1:   1)
(PID.TID 0000.0001) // =======================================================
(PID.TID 0000.0001) K =   1
(PID.TID 0000.0001)                I=8       I=18      I=28      I=38      I=48      I=58      I=68      I=78      I=88
(PID.TID 0000.0001) |--J--|101234567|901234567|901234567|901234567|901234567|901234567|901234567|901234567|901234567|9012
(PID.TID 0000.0001)     42 ............................................bbbbbbccccccddcccbbbbb..cccc.....bbbccccccccc.....
(PID.TID 0000.0001)     41 ..............................................................................................
(PID.TID 0000.0001)     40 ihhhhii.lkkkkllllllmm..................................................................iiiihhh
(PID.TID 0000.0001)     39 hhhhiijkkkkkllll...ll.....................................................----........hhhhhhhh
(PID.TID 0000.0001)     38 hiijjjkkkllllmm...........................................................aaaaa......hhgghhiij
(PID.TID 0000.0001)     37 iijjk..................................................................de...bbb...fffff.hiiijj
(PID.TID 0000.0001)     36 jjjk.........................................jkkk....................deffeedcccb.eddefghiijjjk
(PID.TID 0000.0001)     35 jkkl.................................ihii..jjkkklk...nnnno...........efg....dbbbcccdefghiijkkl
(PID.TID 0000.0001)     34 .....................................iiii.kkkkkkll.mlllmnop..................ddcccdefghijl....
(PID.TID 0000.0001)     33 l.....................................jjjjkkkkklllmmmmmnnoppq.................dddffghijkkkl...
(PID.TID 0000.0001)     32 l.....................................kkkkkllllmnnnnnnnoppppq................dfgghijjkklkkl...
(PID.TID 0000.0001)     31 ......................................kllllmmnnnooooooppqqqqq..............iijjjjjkkklllll....
(PID.TID 0000.0001)     30 .....................................nnoooooooopppqqqqqqrrrrr............jkklmmmnmmmmmmmmm....
(PID.TID 0000.0001)     29 ...................................ssrsssrrrrrrrrrrrrrrsssssrq...........nnnoooonnnnnnmmmm....
(PID.TID 0000.0001)     28 .................................vvuuuuuutttttttssssssssssssrrq.........qppooooooooonnnnnn....
(PID.TID 0000.0001)     27 ................ss..............xwwwvvvvvuuuuuuuttttttttssssrrqq...rrqq.rqqqppppoooonnnn......
(PID.TID 0000.0001)     26 ................sss...........yxxxxwwwwwwvvvvvuuuutttttttsssrrrqqq.rrqrsrrrrqqpppooooonn......
(PID.TID 0000.0001)     25 ................ssst...vvu...zyyyyxwwwwwwvvvvvvuuuuttttttsssrrrrrrr...ssssrrrqqpppoooonm......
(PID.TID 0000.0001)     24 ..............tttttuv.vvvv...zzy.zxwwwvvvvvvvvuuuuuttttsssrrrrrrrrrqqq.ssrrrrrqppppooonn......
(PID.TID 0000.0001)     23 ..............tsttuuv.vvvv...zzz..wwvvvvvvvvvvvuuuuttttssrrrrrrrrrrqqqq....qqrqpppppoooo......
(PID.TID 0000.0001)     22 ppp...........ttttuuvuvvuu...++.vvvvvvvvvvvvvvvuuuuuttttssrrrrrrrqqqqqrr......qqqqqpppppppppp.
(PID.TID 0000.0001)     21 ppqqq........tttttuuuuuuuuu.....wvvuuuuuuuvvvvuuuuuuutttsssrrrrrqqqqqqqq........qqqqqpppppppqq
(PID.TID 0000.0001)     20 opppp.......uttttttuuuuuuuu......v.vvvvvvvvvvvvvvvvvuuuuttssssrrqqqqqqqq.........qqqqqqqqpoppp
(PID.TID 0000.0001)     19 ppoop.......uuuutttuuvvuvvvvv...www.....vvvvvvvvvvvvvuuuuttssssrrqqqqqqq...........rrqqqppppoo
(PID.TID 0000.0001)     18 ooooo.......vuvvuuuuvvvvvvvvvvvvvww...xxwwwwwvvvvvvvvvvuuutttssrrqqqqqqpp..........rrrqqppoooo
(PID.TID 0000.0001)     17 poooo.......w.xwwvvvwwwvvvvvvvvvv.....wwwwwwwvvvvvvvvvvuuuttttsssrqqqqqpp.........tssrrqpppooo
(PID.TID 0000.0001)     16 qppoo......xw.yxxwwwwwwwvvvvuuvv.......xwwwvvvvvvvvvvvvuuuutttttsrrrqqqppo........ttssrrqqqppo
(PID.TID 0000.0001)     15 rqqpoo....zyx.yxxxwwvvvvvvvuuuu.........wwvvvvvvvvvvvvuuuuuuuuttssrrrqqppon......uuttsssrrrqqp
(PID.TID 0000.0001)     14 rrqqpo....zyxxxxwwwwvvuuuuuttts.........wvvvuuvuuuuuuuuuuuuuutttssrrrrqqpoo.....vuuttttsssrrqq
(PID.TID 0000.0001)     13 srrqqp....yyxxwwvvvvvuuuuuttsss.........vvuuututttttssstttttttttsssrrrqqppo....vvuuttsttttsrrq
(PID.TID 0000.0001)     12 ssrrqqqruvwxwvvvvvuuuttuuttsssssrrqq....uutttttssssrrrrrrrrrsssssssrrrqqpo.....vutttssssssssrr
(PID.TID 0000.0001)     11 rrqqqqrsttuvvvvvvuuuutttttsssrrrrrrqq..ttsssr.ssssrqqqrrrrqqrrqqrrrqqqqpoo....stssssrrrrrrrrqq
(PID.TID 0000.0001)     10 ppppppppppqqrrrtttssrrrrrrrrqqqqqpqqpp.rrrrqq.rrrrrqqqqqrrqqqqppqrqqpooooo..noqrqppppppppppppp
(PID.TID 0000.0001)      9 mmmmmnmmmmmmnnnnoooonoopoooooooopppqqpppqppp.npqqrrqqqqqqrrqppoppppoonnnnn.mmnooonnmmlmmmlmmmm
(PID.TID 0000.0001)      8 iijjjjjiiiijkllkkklkkklllllllllmmmnnonnoooooonnoopppppppppoponnnooonnnnmno.llllllkjjjijjiiiijj
(PID.TID 0000.0001)      7 fgggffffgghhhhhiiiiihhhhiiiiiiijjjjjjiijjklmmmmmmmlkkkkkllllllllmmmmmmmllmlkklkjiihhgggggffggg
(PID.TID 0000.0001)      6 eedddeefffffggggggggfffgggggghhhhggggfffggijkkjjjjihggffghiijjjjjjkkkjjkjjjiihhggffffffffeeedd
(PID.TID 0000.0001)      5 ddddddeeeeeeeffffffffeeffeeeffffeeeeeeeeeeffgggggfeeeddddefghgggghhgggggggffeeeeeeeedddddddddd
(PID.TID 0000.0001)      4 ddddddddeeeeeefffffeffffffffeeeeeeeeddddddddddddddccccccddeeeeeeeeeeeeeeddde..dddddddddccddddd
(PID.TID 0000.0001)      3 dddddeeeeeee............................eedddccccccccccccddccccccccccccccdd..ddcccccccccdddddd
(PID.TID 0000.0001)      2 ............................................bbbbbbccccccddcccbbbbb..cccc.....bbbccccccccc.....
(PID.TID 0000.0001)      1 ..............................................................................................
(PID.TID 0000.0001)      0 ihhhhii.lkkkkllllllmm..................................................................iiiihhh
(PID.TID 0000.0001)     -1 hhhhiijkkkkkllll...ll.....................................................----........hhhhhhhh
(PID.TID 0000.0001) // =======================================================
(PID.TID 0000.0001) // END OF FIELD                                          =
(PID.TID 0000.0001) // =======================================================
(PID.TID 0000.0001) 
(PID.TID 0000.0001)  MDS_WRITE_FIELD: it,rec,kS,kL,kH=      20     1  15   1  15 file=U.0000000020
(PID.TID 0000.0001)  MDS_WRITE_FIELD: it,rec,kS,kL,kH=      20     1  15   1  15 file=V.0000000020
(PID.TID 0000.0001)  MDS_WRITE_FIELD: it,rec,kS,kL,kH=      20     1  15   1  15 file=T.0000000020
(PID.TID 0000.0001)  MDS_WRITE_FIELD: it,rec,kS,kL,kH=      20     1  15   1  15 file=S.0000000020
(PID.TID 0000.0001)  MDS_WRITE_FIELD: it,rec,kS,kL,kH=      20     1   1   1   1 file=Eta.0000000020
(PID.TID 0000.0001)  MDS_WRITE_FIELD: it,rec,kS,kL,kH=      20     1  15   1  15 file=W.0000000020
(PID.TID 0000.0001)  MDS_WRITE_FIELD: it,rec,kS,kL,kH=      20     1  15   1  15 file=PH.0000000020
(PID.TID 0000.0001)  MDS_WRITE_FIELD: it,rec,kS,kL,kH=      20     1   1   1   1 file=PHL.0000000020
(PID.TID 0000.0001)  MDS_WRITE_FIELD: it,rec,kS,kL,kH=      20     1   1   1   1 file=ETAtave.0000000020
(PID.TID 0000.0001)  MDS_WRITE_FIELD: it,rec,kS,kL,kH=      20     1  15   1  15 file=Ttave.0000000020
(PID.TID 0000.0001)  MDS_WRITE_FIELD: it,rec,kS,kL,kH=      20     1  15   1  15 file=Stave.0000000020
(PID.TID 0000.0001)  MDS_WRITE_FIELD: it,rec,kS,kL,kH=      20     1  15   1  15 file=uVeltave.0000000020
(PID.TID 0000.0001)  MDS_WRITE_FIELD: it,rec,kS,kL,kH=      20     1  15   1  15 file=vVeltave.0000000020
(PID.TID 0000.0001)  MDS_WRITE_FIELD: it,rec,kS,kL,kH=      20     1  15   1  15 file=wVeltave.0000000020
(PID.TID 0000.0001)  MDS_WRITE_FIELD: it,rec,kS,kL,kH=      20     1   1   1   1 file=Eta2tave.0000000020
(PID.TID 0000.0001)  MDS_WRITE_FIELD: it,rec,kS,kL,kH=      20     1  15   1  15 file=UTtave.0000000020
(PID.TID 0000.0001)  MDS_WRITE_FIELD: it,rec,kS,kL,kH=      20     1  15   1  15 file=VTtave.0000000020
(PID.TID 0000.0001)  MDS_WRITE_FIELD: it,rec,kS,kL,kH=      20     1  15   1  15 file=WTtave.0000000020
(PID.TID 0000.0001)  MDS_WRITE_FIELD: it,rec,kS,kL,kH=      20     1  15   1  15 file=UStave.0000000020
(PID.TID 0000.0001)  MDS_WRITE_FIELD: it,rec,kS,kL,kH=      20     1  15   1  15 file=VStave.0000000020
(PID.TID 0000.0001)  MDS_WRITE_FIELD: it,rec,kS,kL,kH=      20     1  15   1  15 file=WStave.0000000020
(PID.TID 0000.0001)  MDS_WRITE_FIELD: it,rec,kS,kL,kH=      20     1  15   1  15 file=TTtave.0000000020
(PID.TID 0000.0001)  MDS_WRITE_FIELD: it,rec,kS,kL,kH=      20     1  15   1  15 file=UUtave.0000000020
(PID.TID 0000.0001)  MDS_WRITE_FIELD: it,rec,kS,kL,kH=      20     1  15   1  15 file=VVtave.0000000020
(PID.TID 0000.0001)  MDS_WRITE_FIELD: it,rec,kS,kL,kH=      20     1  15   1  15 file=UVtave.0000000020
(PID.TID 0000.0001)  MDS_WRITE_FIELD: it,rec,kS,kL,kH=      20     1  15   1  15 file=Tdiftave.0000000020
(PID.TID 0000.0001)  MDS_WRITE_FIELD: it,rec,kS,kL,kH=      20     1  15   1  15 file=PhHytave.0000000020
(PID.TID 0000.0001)  MDS_WRITE_FIELD: it,rec,kS,kL,kH=      20     1   1   1   1 file=PHLtave.0000000020
(PID.TID 0000.0001)  MDS_WRITE_FIELD: it,rec,kS,kL,kH=      20     1   1   1   1 file=uFluxtave.0000000020
(PID.TID 0000.0001)  MDS_WRITE_FIELD: it,rec,kS,kL,kH=      20     1   1   1   1 file=vFluxtave.0000000020
(PID.TID 0000.0001)  MDS_WRITE_FIELD: it,rec,kS,kL,kH=      20     1   1   1   1 file=tFluxtave.0000000020
(PID.TID 0000.0001)  MDS_WRITE_FIELD: it,rec,kS,kL,kH=      20     1   1   1   1 file=sFluxtave.0000000020
(PID.TID 0000.0001)  MDS_WRITE_FIELD: it,rec,kS,kL,kH=      20     1   1   1   1 file=PHL2tave.0000000020
(PID.TID 0000.0001)  MDS_WRITE_FIELD: it,rec,kS,kL,kH=      20     1  15   1  15 file=Convtave.0000000020
(PID.TID 0000.0001) // Time-average data written, t-step        20
(PID.TID 0000.0001) 
(PID.TID 0000.0001)  MDS_WRITE_FIELD: it,rec,kS,kL,kH=      20     1  15   1  15 file=GM_Kwx-T.0000000020
(PID.TID 0000.0001)  MDS_WRITE_FIELD: it,rec,kS,kL,kH=      20     1  15   1  15 file=GM_Kwy-T.0000000020
(PID.TID 0000.0001)  MDS_WRITE_FIELD: it,rec,kS,kL,kH=      20     1  15   1  15 file=GM_Kwz-T.0000000020
(PID.TID 0000.0001)  MDS_WRITE_FIELD: it,rec,kS,kL,kH=      20     1  15   1  15 file=pickup_cd.0000000020
(PID.TID 0000.0001)  MDS_WRITE_FIELD: it,rec,kS,kL,kH=      20     2  15   1  15 file=pickup_cd.0000000020
(PID.TID 0000.0001)  MDS_WRITE_FIELD: it,rec,kS,kL,kH=      20     3  15   1  15 file=pickup_cd.0000000020
(PID.TID 0000.0001)  MDS_WRITE_FIELD: it,rec,kS,kL,kH=      20     4  15   1  15 file=pickup_cd.0000000020
(PID.TID 0000.0001)  MDS_WRITE_FIELD: it,rec,kS,kL,kH=      20    61   1   1   1 file=pickup_cd.0000000020
(PID.TID 0000.0001)  MDS_WRITE_FIELD: it,rec,kS,kL,kH=      20    -1  15   1  15 file=pickup.0000000020
(PID.TID 0000.0001)  MDS_WRITE_FIELD: it,rec,kS,kL,kH=      20    -2  15   1  15 file=pickup.0000000020
(PID.TID 0000.0001)  MDS_WRITE_FIELD: it,rec,kS,kL,kH=      20    -3  15   1  15 file=pickup.0000000020
(PID.TID 0000.0001)  MDS_WRITE_FIELD: it,rec,kS,kL,kH=      20    -4  15   1  15 file=pickup.0000000020
(PID.TID 0000.0001)  MDS_WRITE_FIELD: it,rec,kS,kL,kH=      20    -5  15   1  15 file=pickup.0000000020
(PID.TID 0000.0001)  MDS_WRITE_FIELD: it,rec,kS,kL,kH=      20    -6  15   1  15 file=pickup.0000000020
(PID.TID 0000.0001)  MDS_WRITE_FIELD: it,rec,kS,kL,kH=      20    -7  15   1  15 file=pickup.0000000020
(PID.TID 0000.0001)  MDS_WRITE_FIELD: it,rec,kS,kL,kH=      20    -8  15   1  15 file=pickup.0000000020
(PID.TID 0000.0001)  MDS_WRITE_FIELD: it,rec,kS,kL,kH=      20  -121   1   1   1 file=pickup.0000000020
(PID.TID 0000.0001)  MDS_WRITE_FIELD: it,rec,kS,kL,kH=      20  -122   1   1   1 file=pickup.0000000020
(PID.TID 0000.0001)  MDS_WRITE_FIELD: it,rec,kS,kL,kH=      20  -123   1   1   1 file=pickup.0000000020
(PID.TID 0000.0001) %CHECKPOINT        20 0000000020
 EXTERNAL_FIELDS_LOAD,        20 : iP,iLd,i0,i1=    1    2    1    2 ; Wght=  0.8333333333  0.1666666667
 EXTERNAL_FIELDS_LOAD: (fu0,1),fu,fv= -3.5633E-02 -1.4435E-02 -3.2100E-02 -5.0653E-02
 EXTERNAL_FIELDS_LOAD: SST,SSS,Q,E-P=  7.1005E-01  3.4666E+01  2.6156E+02  1.1093E-05
DEBUG_STATS_RL:          Uvel (THERMODYNAMICS)  min= -1.36721045962287E-01
DEBUG_STATS_RL:          Uvel (THERMODYNAMICS)  max=  1.61518424836703E-01
DEBUG_STATS_RL:          Uvel (THERMODYNAMICS) mean=  2.86990056618067E-03
DEBUG_STATS_RL:          Uvel (THERMODYNAMICS) S.D.=  2.25039474197991E-02
DEBUG_STATS_RL:          Vvel (THERMODYNAMICS)  min= -1.17970386643138E-01
DEBUG_STATS_RL:          Vvel (THERMODYNAMICS)  max=  1.40740585272865E-01
DEBUG_STATS_RL:          Vvel (THERMODYNAMICS) mean=  2.19054608652985E-03
DEBUG_STATS_RL:          Vvel (THERMODYNAMICS) S.D.=  1.65199449891191E-02
DEBUG_STATS_RL:          Wvel (THERMODYNAMICS)  min= -1.66392285844743E-04
DEBUG_STATS_RL:          Wvel (THERMODYNAMICS)  max=  1.46855199143814E-04
DEBUG_STATS_RL:          Wvel (THERMODYNAMICS) mean=  3.95367846975138E-07
DEBUG_STATS_RL:          Wvel (THERMODYNAMICS) S.D.=  1.77552944115533E-05
DEBUG_STATS_RL:         Theta (THERMODYNAMICS)  min= -2.01523870808629E+00
DEBUG_STATS_RL:         Theta (THERMODYNAMICS)  max=  2.98601259060557E+01
DEBUG_STATS_RL:         Theta (THERMODYNAMICS) mean=  3.21891188506804E+00
DEBUG_STATS_RL:         Theta (THERMODYNAMICS) S.D.=  5.85717996847418E+00
DEBUG_STATS_RL:          Salt (THERMODYNAMICS)  min=  9.99999999999999E-03
DEBUG_STATS_RL:          Salt (THERMODYNAMICS)  max=  3.74524057149963E+01
DEBUG_STATS_RL:          Salt (THERMODYNAMICS) mean=  1.88551649915373E+01
DEBUG_STATS_RL:          Salt (THERMODYNAMICS) S.D.=  1.73006488399657E+01
DEBUG_STATS_RL:         GtNm1 (THERMODYNAMICS)  min= -3.28432520460174E-06
DEBUG_STATS_RL:         GtNm1 (THERMODYNAMICS)  max=  2.63707399586579E-06
DEBUG_STATS_RL:         GtNm1 (THERMODYNAMICS) mean=  1.30906028820043E-09
DEBUG_STATS_RL:         GtNm1 (THERMODYNAMICS) S.D.=  2.34142264123435E-07
DEBUG_STATS_RL:         GsNm1 (THERMODYNAMICS)  min= -5.29653564921135E-07
DEBUG_STATS_RL:         GsNm1 (THERMODYNAMICS)  max=  3.63077291186233E-07
DEBUG_STATS_RL:         GsNm1 (THERMODYNAMICS) mean= -3.33495418317629E-10
DEBUG_STATS_RL:         GsNm1 (THERMODYNAMICS) S.D.=  2.06820439711122E-08
DEBUG_STATS_RL:                EtaN (DYNAMICS)  min= -1.67407217024876E+00
DEBUG_STATS_RL:                EtaN (DYNAMICS)  max=  1.04855286134226E+00
DEBUG_STATS_RL:                EtaN (DYNAMICS) mean= -1.61918808903793E-01
DEBUG_STATS_RL:                EtaN (DYNAMICS) S.D.=  6.22776900116959E-01
DEBUG_STATS_RL:                Uvel (DYNAMICS)  min= -1.36721045962287E-01
DEBUG_STATS_RL:                Uvel (DYNAMICS)  max=  1.61518424836703E-01
DEBUG_STATS_RL:                Uvel (DYNAMICS) mean=  2.86990056618067E-03
DEBUG_STATS_RL:                Uvel (DYNAMICS) S.D.=  2.25039474197991E-02
DEBUG_STATS_RL:                Vvel (DYNAMICS)  min= -1.17970386643138E-01
DEBUG_STATS_RL:                Vvel (DYNAMICS)  max=  1.40740585272865E-01
DEBUG_STATS_RL:                Vvel (DYNAMICS) mean=  2.19054608652985E-03
DEBUG_STATS_RL:                Vvel (DYNAMICS) S.D.=  1.65199449891191E-02
DEBUG_STATS_RL:                Wvel (DYNAMICS)  min= -1.66392285844743E-04
DEBUG_STATS_RL:                Wvel (DYNAMICS)  max=  1.46855199143814E-04
DEBUG_STATS_RL:                Wvel (DYNAMICS) mean=  3.95367846975138E-07
DEBUG_STATS_RL:                Wvel (DYNAMICS) S.D.=  1.77552944115533E-05
DEBUG_STATS_RL:               Theta (DYNAMICS)  min= -2.01523870808629E+00
DEBUG_STATS_RL:               Theta (DYNAMICS)  max=  2.98601259060557E+01
DEBUG_STATS_RL:               Theta (DYNAMICS) mean=  3.21891188506804E+00
DEBUG_STATS_RL:               Theta (DYNAMICS) S.D.=  5.85717996847418E+00
DEBUG_STATS_RL:                Salt (DYNAMICS)  min=  9.99999999999999E-03
DEBUG_STATS_RL:                Salt (DYNAMICS)  max=  3.74524057149963E+01
DEBUG_STATS_RL:                Salt (DYNAMICS) mean=  1.88551649915373E+01
DEBUG_STATS_RL:                Salt (DYNAMICS) S.D.=  1.73006488399657E+01
DEBUG_STATS_RL:                  Gu (DYNAMICS)  min= -1.44104819185904E-01
DEBUG_STATS_RL:                  Gu (DYNAMICS)  max=  1.60410252176561E-01
DEBUG_STATS_RL:                  Gu (DYNAMICS) mean=  2.52270498642916E-03
DEBUG_STATS_RL:                  Gu (DYNAMICS) S.D.=  2.20962133297421E-02
DEBUG_STATS_RL:                  Gv (DYNAMICS)  min= -1.30172030940026E-01
DEBUG_STATS_RL:                  Gv (DYNAMICS)  max=  1.65482623729899E-01
DEBUG_STATS_RL:                  Gv (DYNAMICS) mean=  4.20605281846274E-03
DEBUG_STATS_RL:                  Gv (DYNAMICS) S.D.=  1.85835569817049E-02
DEBUG_STATS_RL:               GuNm1 (DYNAMICS)  min= -7.16918512872490E-06
DEBUG_STATS_RL:               GuNm1 (DYNAMICS)  max=  7.81956275041501E-06
DEBUG_STATS_RL:               GuNm1 (DYNAMICS) mean= -1.13751875126667E-08
DEBUG_STATS_RL:               GuNm1 (DYNAMICS) S.D.=  1.14531346998897E-06
DEBUG_STATS_RL:               GvNm1 (DYNAMICS)  min= -9.22789762773906E-06
DEBUG_STATS_RL:               GvNm1 (DYNAMICS)  max=  1.70156612277832E-05
DEBUG_STATS_RL:               GvNm1 (DYNAMICS) mean=  7.72398303109521E-07
DEBUG_STATS_RL:               GvNm1 (DYNAMICS) S.D.=  2.59133767527960E-06
DEBUG_STATS_RL:               GtNm1 (DYNAMICS)  min= -3.28432520460174E-06
DEBUG_STATS_RL:               GtNm1 (DYNAMICS)  max=  2.63707399586579E-06
DEBUG_STATS_RL:               GtNm1 (DYNAMICS) mean=  1.30906028820043E-09
DEBUG_STATS_RL:               GtNm1 (DYNAMICS) S.D.=  2.34142264123435E-07
DEBUG_STATS_RL:               GsNm1 (DYNAMICS)  min= -5.29653564921135E-07
DEBUG_STATS_RL:               GsNm1 (DYNAMICS)  max=  3.63077291186233E-07
DEBUG_STATS_RL:               GsNm1 (DYNAMICS) mean= -3.33495418317629E-10
DEBUG_STATS_RL:               GsNm1 (DYNAMICS) S.D.=  2.06820439711122E-08
DEBUG_STATS_RL:    cg2d_b (SOLVE_FOR_PRESSURE)  min= -2.19771452239479E+04
DEBUG_STATS_RL:    cg2d_b (SOLVE_FOR_PRESSURE)  max=  1.56453225506855E+04
DEBUG_STATS_RL:    cg2d_b (SOLVE_FOR_PRESSURE) mean=  1.45770631620128E+00
DEBUG_STATS_RL:    cg2d_b (SOLVE_FOR_PRESSURE) S.D.=  3.45385161101367E+03
 cg2d: Sum(rhs),rhsMax =   1.53549976014558E-01  1.44351774048259E+00
(PID.TID 0000.0001)  cg2d: iter=     1 ; resid.=  2.09723338097298E-01
(PID.TID 0000.0001)  cg2d: iter=     2 ; resid.=  1.97521910476905E-01
(PID.TID 0000.0001)  cg2d: iter=     3 ; resid.=  2.05089769705727E-01
(PID.TID 0000.0001)  cg2d: iter=     4 ; resid.=  1.91758997852886E-01
(PID.TID 0000.0001)  cg2d: iter=     5 ; resid.=  1.80872862065189E-01
(PID.TID 0000.0001)  cg2d: iter=     6 ; resid.=  1.32611732671619E-01
(PID.TID 0000.0001)  cg2d: iter=     7 ; resid.=  1.22709514679670E-01
(PID.TID 0000.0001)  cg2d: iter=     8 ; resid.=  1.05390170757733E-01
(PID.TID 0000.0001)  cg2d: iter=     9 ; resid.=  8.15138259171556E-02
(PID.TID 0000.0001)  cg2d: iter=    10 ; resid.=  6.53854539767192E-02
(PID.TID 0000.0001)  cg2d: iter=    11 ; resid.=  5.84718307311456E-02
(PID.TID 0000.0001)  cg2d: iter=    12 ; resid.=  4.51022048220730E-02
(PID.TID 0000.0001)  cg2d: iter=    13 ; resid.=  3.53555439887099E-02
(PID.TID 0000.0001)  cg2d: iter=    14 ; resid.=  3.08962355329789E-02
(PID.TID 0000.0001)  cg2d: iter=    15 ; resid.=  2.57984206471333E-02
(PID.TID 0000.0001)  cg2d: iter=    16 ; resid.=  2.36762691446087E-02
(PID.TID 0000.0001)  cg2d: iter=    17 ; resid.=  2.35450961183094E-02
(PID.TID 0000.0001)  cg2d: iter=    18 ; resid.=  1.85475757084028E-02
(PID.TID 0000.0001)  cg2d: iter=    19 ; resid.=  1.44306940801615E-02
(PID.TID 0000.0001)  cg2d: iter=    20 ; resid.=  1.26137253965216E-02
(PID.TID 0000.0001)  cg2d: iter=    21 ; resid.=  1.03818214994238E-02
(PID.TID 0000.0001)  cg2d: iter=    22 ; resid.=  8.58387597904935E-03
(PID.TID 0000.0001)  cg2d: iter=    23 ; resid.=  7.59532917243731E-03
(PID.TID 0000.0001)  cg2d: iter=    24 ; resid.=  7.08940086936921E-03
(PID.TID 0000.0001)  cg2d: iter=    25 ; resid.=  5.34356374779126E-03
(PID.TID 0000.0001)  cg2d: iter=    26 ; resid.=  4.09898936667824E-03
(PID.TID 0000.0001)  cg2d: iter=    27 ; resid.=  3.51077869791011E-03
(PID.TID 0000.0001)  cg2d: iter=    28 ; resid.=  3.00540964196366E-03
(PID.TID 0000.0001)  cg2d: iter=    29 ; resid.=  2.41911139541773E-03
(PID.TID 0000.0001)  cg2d: iter=    30 ; resid.=  2.11333209784750E-03
(PID.TID 0000.0001)  cg2d: iter=    31 ; resid.=  1.87432602046899E-03
(PID.TID 0000.0001)  cg2d: iter=    32 ; resid.=  1.50269144156403E-03
(PID.TID 0000.0001)  cg2d: iter=    33 ; resid.=  1.24626669847961E-03
(PID.TID 0000.0001)  cg2d: iter=    34 ; resid.=  1.09814632616804E-03
(PID.TID 0000.0001)  cg2d: iter=    35 ; resid.=  8.60561350777533E-04
(PID.TID 0000.0001)  cg2d: iter=    36 ; resid.=  6.82949193000441E-04
(PID.TID 0000.0001)  cg2d: iter=    37 ; resid.=  5.88910717926378E-04
(PID.TID 0000.0001)  cg2d: iter=    38 ; resid.=  5.24727088621081E-04
(PID.TID 0000.0001)  cg2d: iter=    39 ; resid.=  4.47989300153277E-04
(PID.TID 0000.0001)  cg2d: iter=    40 ; resid.=  3.98495149140015E-04
(PID.TID 0000.0001)  cg2d: iter=    41 ; resid.=  2.92767320094846E-04
(PID.TID 0000.0001)  cg2d: iter=    42 ; resid.=  2.34577741643968E-04
(PID.TID 0000.0001)  cg2d: iter=    43 ; resid.=  1.86241695066599E-04
(PID.TID 0000.0001)  cg2d: iter=    44 ; resid.=  1.43531462340211E-04
(PID.TID 0000.0001)  cg2d: iter=    45 ; resid.=  1.06637928018025E-04
(PID.TID 0000.0001)  cg2d: iter=    46 ; resid.=  8.69481716654947E-05
(PID.TID 0000.0001)  cg2d: iter=    47 ; resid.=  7.65821718733467E-05
(PID.TID 0000.0001)  cg2d: iter=    48 ; resid.=  6.42843669513264E-05
(PID.TID 0000.0001)  cg2d: iter=    49 ; resid.=  5.18619028858052E-05
(PID.TID 0000.0001)  cg2d: iter=    50 ; resid.=  4.63336193172079E-05
(PID.TID 0000.0001)  cg2d: iter=    51 ; resid.=  3.73453836191776E-05
(PID.TID 0000.0001)  cg2d: iter=    52 ; resid.=  2.94968008169763E-05
(PID.TID 0000.0001)  cg2d: iter=    53 ; resid.=  2.46504887210890E-05
(PID.TID 0000.0001)  cg2d: iter=    54 ; resid.=  2.04715136464491E-05
(PID.TID 0000.0001)  cg2d: iter=    55 ; resid.=  1.68087012820504E-05
(PID.TID 0000.0001)  cg2d: iter=    56 ; resid.=  1.40641264269668E-05
(PID.TID 0000.0001)  cg2d: iter=    57 ; resid.=  1.09892261074804E-05
(PID.TID 0000.0001)  cg2d: iter=    58 ; resid.=  8.03271931639543E-06
(PID.TID 0000.0001)  cg2d: iter=    59 ; resid.=  6.59985843981581E-06
(PID.TID 0000.0001)  cg2d: iter=    60 ; resid.=  5.22731689911399E-06
(PID.TID 0000.0001)  cg2d: iter=    61 ; resid.=  4.22179114054954E-06
(PID.TID 0000.0001)  cg2d: iter=    62 ; resid.=  3.19841443163428E-06
(PID.TID 0000.0001)  cg2d: iter=    63 ; resid.=  2.71816716849012E-06
(PID.TID 0000.0001)  cg2d: iter=    64 ; resid.=  2.25531499436148E-06
(PID.TID 0000.0001)  cg2d: iter=    65 ; resid.=  1.76888781107307E-06
(PID.TID 0000.0001)  cg2d: iter=    66 ; resid.=  1.31640929689641E-06
(PID.TID 0000.0001)  cg2d: iter=    67 ; resid.=  1.08746802371072E-06
(PID.TID 0000.0001)  cg2d: iter=    68 ; resid.=  8.15714746646807E-07
(PID.TID 0000.0001)  cg2d: iter=    69 ; resid.=  5.91714301220965E-07
(PID.TID 0000.0001)  cg2d: iter=    70 ; resid.=  4.42372858655991E-07
(PID.TID 0000.0001)  cg2d: iter=    71 ; resid.=  3.27983843594446E-07
(PID.TID 0000.0001)  cg2d: iter=    72 ; resid.=  2.45902643656425E-07
(PID.TID 0000.0001)  cg2d: iter=    73 ; resid.=  2.08274753761367E-07
(PID.TID 0000.0001)  cg2d: iter=    74 ; resid.=  1.68545210616809E-07
(PID.TID 0000.0001)  cg2d: iter=    75 ; resid.=  1.35312281485930E-07
(PID.TID 0000.0001)  cg2d: iter=    76 ; resid.=  1.06081055605834E-07
(PID.TID 0000.0001)  cg2d: iter=    77 ; resid.=  9.20149072315152E-08
(PID.TID 0000.0001)  cg2d: iter=    78 ; resid.=  7.85482301688376E-08
(PID.TID 0000.0001)  cg2d: iter=    79 ; resid.=  7.40161252516873E-08
(PID.TID 0000.0001)  cg2d: iter=    80 ; resid.=  6.25238405966355E-08
(PID.TID 0000.0001)  cg2d: iter=    81 ; resid.=  4.87807328380815E-08
(PID.TID 0000.0001)  cg2d: iter=    82 ; resid.=  4.07645057485671E-08
(PID.TID 0000.0001)  cg2d: iter=    83 ; resid.=  3.46041940581643E-08
(PID.TID 0000.0001)  cg2d: iter=    84 ; resid.=  2.93577254700674E-08
(PID.TID 0000.0001)  cg2d: iter=    85 ; resid.=  2.48304784335269E-08
(PID.TID 0000.0001)  cg2d: iter=    86 ; resid.=  2.01171095053793E-08
(PID.TID 0000.0001)  cg2d: iter=    87 ; resid.=  1.81030432165370E-08
(PID.TID 0000.0001)  cg2d: iter=    88 ; resid.=  1.60145685465887E-08
(PID.TID 0000.0001)  cg2d: iter=    89 ; resid.=  1.34243088574009E-08
(PID.TID 0000.0001)  cg2d: iter=    90 ; resid.=  1.03957994513147E-08
(PID.TID 0000.0001)  cg2d: iter=    91 ; resid.=  8.34035805974419E-09
(PID.TID 0000.0001)  cg2d: iter=    92 ; resid.=  6.64778501477085E-09
(PID.TID 0000.0001)  cg2d: iter=    93 ; resid.=  4.42156769052347E-09
(PID.TID 0000.0001)  cg2d: iter=    94 ; resid.=  3.30065942266698E-09
(PID.TID 0000.0001)  cg2d: iter=    95 ; resid.=  2.64524091685125E-09
(PID.TID 0000.0001)  cg2d: iter=    96 ; resid.=  2.15521031952916E-09
(PID.TID 0000.0001)  cg2d: iter=    97 ; resid.=  1.73563228631068E-09
(PID.TID 0000.0001)  cg2d: iter=    98 ; resid.=  1.47690929127629E-09
(PID.TID 0000.0001)  cg2d: iter=    99 ; resid.=  1.30095492358612E-09
(PID.TID 0000.0001)  cg2d: iter=   100 ; resid.=  1.15931606461871E-09
(PID.TID 0000.0001)  cg2d: iter=   101 ; resid.=  1.00899288686270E-09
(PID.TID 0000.0001)  cg2d: iter=   102 ; resid.=  8.49870115328552E-10
(PID.TID 0000.0001)  cg2d: iter=   103 ; resid.=  7.20964759363660E-10
(PID.TID 0000.0001)  cg2d: iter=   104 ; resid.=  5.68648448674882E-10
(PID.TID 0000.0001)  cg2d: iter=   105 ; resid.=  4.12383537471002E-10
(PID.TID 0000.0001)  cg2d: iter=   106 ; resid.=  2.93232710578169E-10
(PID.TID 0000.0001)  cg2d: iter=   107 ; resid.=  1.97129086653475E-10
(PID.TID 0000.0001)  cg2d: iter=   108 ; resid.=  1.36858990142089E-10
(PID.TID 0000.0001)  cg2d: iter=   109 ; resid.=  1.01738586126367E-10
(PID.TID 0000.0001)  cg2d: iter=   110 ; resid.=  7.86699312055046E-11
(PID.TID 0000.0001)  cg2d: iter=   111 ; resid.=  6.68479634259737E-11
(PID.TID 0000.0001)  cg2d: iter=   112 ; resid.=  5.39298474258159E-11
(PID.TID 0000.0001)  cg2d: iter=   113 ; resid.=  4.11784914032018E-11
(PID.TID 0000.0001)  cg2d: iter=   114 ; resid.=  3.19490286265320E-11
(PID.TID 0000.0001)  cg2d: iter=   115 ; resid.=  2.42712418319328E-11
(PID.TID 0000.0001)  cg2d: iter=   116 ; resid.=  1.75394027896395E-11
(PID.TID 0000.0001)  cg2d: iter=   117 ; resid.=  1.36803100806452E-11
(PID.TID 0000.0001)  cg2d: iter=   118 ; resid.=  1.04805347006790E-11
(PID.TID 0000.0001)  cg2d: iter=   119 ; resid.=  7.68523986526180E-12
(PID.TID 0000.0001)  cg2d: iter=   120 ; resid.=  6.11235783121366E-12
(PID.TID 0000.0001)  cg2d: iter=   121 ; resid.=  4.66229540969014E-12
(PID.TID 0000.0001)  cg2d: iter=   122 ; resid.=  3.42980157169469E-12
(PID.TID 0000.0001)  cg2d: iter=   123 ; resid.=  2.40425840939565E-12
(PID.TID 0000.0001)  cg2d: iter=   124 ; resid.=  1.67375506358504E-12
(PID.TID 0000.0001)  cg2d: iter=   125 ; resid.=  1.23835763367090E-12
(PID.TID 0000.0001)  cg2d: iter=   126 ; resid.=  8.99085949262338E-13
(PID.TID 0000.0001)  cg2d: iter=   127 ; resid.=  6.14296352624914E-13
(PID.TID 0000.0001)  cg2d: iter=   128 ; resid.=  4.23789555174401E-13
(PID.TID 0000.0001)  cg2d: iter=   129 ; resid.=  3.21110164086802E-13
(PID.TID 0000.0001)  cg2d: iter=   130 ; resid.=  2.54643163638696E-13
(PID.TID 0000.0001)  cg2d: iter=   131 ; resid.=  2.07531134151662E-13
(PID.TID 0000.0001)  cg2d: iter=   132 ; resid.=  1.71701818109851E-13
(PID.TID 0000.0001)  cg2d: iter=   133 ; resid.=  1.36029964711628E-13
(PID.TID 0000.0001)  cg2d: iter=   134 ; resid.=  1.06247848637477E-13
(PID.TID 0000.0001)  cg2d: iter=   135 ; resid.=  8.24697162501319E-14
DEBUG_STATS_RL:    cg2d_x (SOLVE_FOR_PRESSURE)  min= -1.55098120379109E+01
DEBUG_STATS_RL:    cg2d_x (SOLVE_FOR_PRESSURE)  max=  9.78382610517293E+00
DEBUG_STATS_RL:    cg2d_x (SOLVE_FOR_PRESSURE) mean= -1.57872432875964E+00
DEBUG_STATS_RL:    cg2d_x (SOLVE_FOR_PRESSURE) S.D.=  6.09582051210268E+00
(PID.TID 0000.0001)      cg2d_init_res =   5.01718229085375E-01
(PID.TID 0000.0001)      cg2d_iters(min,last) =      -1     135
(PID.TID 0000.0001)      cg2d_last_res =   8.24697162501319E-14
(PID.TID 0000.0001) // =======================================================
(PID.TID 0000.0001) // Begin MONITOR dynamic field statistics
(PID.TID 0000.0001) // =======================================================
(PID.TID 0000.0001) %MON time_tsnumber                =                    21
(PID.TID 0000.0001) %MON time_secondsf                =   1.8144000000000E+06
(PID.TID 0000.0001) %MON dynstat_eta_max              =   9.9733191693914E-01
(PID.TID 0000.0001) %MON dynstat_eta_min              =  -1.5810205950980E+00
(PID.TID 0000.0001) %MON dynstat_eta_mean             =  -1.5209357913407E-03
(PID.TID 0000.0001) %MON dynstat_eta_sd               =   5.4356955423269E-01
(PID.TID 0000.0001) %MON dynstat_eta_del2             =   1.8526881725201E-03
(PID.TID 0000.0001) %MON dynstat_uvel_max             =   1.5334113054446E-01
(PID.TID 0000.0001) %MON dynstat_uvel_min             =  -1.4274060348001E-01
(PID.TID 0000.0001) %MON dynstat_uvel_mean            =  -6.6551201805821E-04
(PID.TID 0000.0001) %MON dynstat_uvel_sd              =   1.4465622122179E-02
(PID.TID 0000.0001) %MON dynstat_uvel_del2            =   9.2190246338601E-05
(PID.TID 0000.0001) %MON dynstat_vvel_max             =   1.4672973168636E-01
(PID.TID 0000.0001) %MON dynstat_vvel_min             =  -1.1961455554495E-01
(PID.TID 0000.0001) %MON dynstat_vvel_mean            =   4.0647217548835E-04
(PID.TID 0000.0001) %MON dynstat_vvel_sd              =   1.0203775182127E-02
(PID.TID 0000.0001) %MON dynstat_vvel_del2            =   9.1030459096595E-05
(PID.TID 0000.0001) %MON dynstat_wvel_max             =   1.3090787468777E-04
(PID.TID 0000.0001) %MON dynstat_wvel_min             =  -1.5740819097841E-04
(PID.TID 0000.0001) %MON dynstat_wvel_mean            =   1.5964098326759E-23
(PID.TID 0000.0001) %MON dynstat_wvel_sd              =   1.9092942738662E-05
(PID.TID 0000.0001) %MON dynstat_wvel_del2            =   2.1525009188453E-07
(PID.TID 0000.0001) %MON dynstat_theta_max            =   2.9860125906056E+01
(PID.TID 0000.0001) %MON dynstat_theta_min            =  -2.0152387080863E+00
(PID.TID 0000.0001) %MON dynstat_theta_mean           =   3.6303115889920E+00
(PID.TID 0000.0001) %MON dynstat_theta_sd             =   4.4159054195579E+00
(PID.TID 0000.0001) %MON dynstat_theta_del2           =   4.8497695473637E-03
(PID.TID 0000.0001) %MON dynstat_salt_max             =   3.7452405714996E+01
(PID.TID 0000.0001) %MON dynstat_salt_min             =   2.9783472747503E+01
(PID.TID 0000.0001) %MON dynstat_salt_mean            =   3.4727965247530E+01
(PID.TID 0000.0001) %MON dynstat_salt_sd              =   2.9622022564681E-01
(PID.TID 0000.0001) %MON dynstat_salt_del2            =   1.0104265971786E-03
(PID.TID 0000.0001) %MON dynstat_sst_max              =   2.9860125906056E+01
(PID.TID 0000.0001) %MON dynstat_sst_min              =  -2.0152387080863E+00
(PID.TID 0000.0001) %MON dynstat_sst_mean             =   1.8700657164301E+01
(PID.TID 0000.0001) %MON dynstat_sst_sd               =   9.0575477307453E+00
(PID.TID 0000.0001) %MON dynstat_sst_del2             =   2.6380463114144E-02
(PID.TID 0000.0001) %MON dynstat_sss_max              =   3.7440070632721E+01
(PID.TID 0000.0001) %MON dynstat_sss_min              =   2.9783472747503E+01
(PID.TID 0000.0001) %MON dynstat_sss_mean             =   3.4862329817007E+01
(PID.TID 0000.0001) %MON dynstat_sss_sd               =   9.7248706257990E-01
(PID.TID 0000.0001) %MON dynstat_sss_del2             =   7.9790023540504E-03
(PID.TID 0000.0001) %MON forcing_qnet_max             =   4.2501818339030E+02
(PID.TID 0000.0001) %MON forcing_qnet_min             =  -1.7882195027669E+02
(PID.TID 0000.0001) %MON forcing_qnet_mean            =  -1.6087980164027E+01
(PID.TID 0000.0001) %MON forcing_qnet_sd              =   1.0451573706380E+02
(PID.TID 0000.0001) %MON forcing_qnet_del2            =   1.0046269814196E+00
(PID.TID 0000.0001) %MON forcing_qsw_max              =   0.0000000000000E+00
(PID.TID 0000.0001) %MON forcing_qsw_min              =   0.0000000000000E+00
(PID.TID 0000.0001) %MON forcing_qsw_mean             =   0.0000000000000E+00
(PID.TID 0000.0001) %MON forcing_qsw_sd               =   0.0000000000000E+00
(PID.TID 0000.0001) %MON forcing_qsw_del2             =   0.0000000000000E+00
(PID.TID 0000.0001) %MON forcing_empmr_max            =   8.0603790308942E-05
(PID.TID 0000.0001) %MON forcing_empmr_min            =  -7.6554177515694E-05
(PID.TID 0000.0001) %MON forcing_empmr_mean           =   9.2634904841042E-07
(PID.TID 0000.0001) %MON forcing_empmr_sd             =   2.8551238028456E-05
(PID.TID 0000.0001) %MON forcing_empmr_del2           =   3.6194392674950E-07
(PID.TID 0000.0001) %MON forcing_fu_max               =   2.7779850363731E-01
(PID.TID 0000.0001) %MON forcing_fu_min               =  -1.7423425614834E-01
(PID.TID 0000.0001) %MON forcing_fu_mean              =   1.6273236229911E-02
(PID.TID 0000.0001) %MON forcing_fu_sd                =   9.0302370992227E-02
(PID.TID 0000.0001) %MON forcing_fu_del2              =   6.9156155412209E-04
(PID.TID 0000.0001) %MON forcing_fv_max               =   2.1707908560832E-01
(PID.TID 0000.0001) %MON forcing_fv_min               =  -1.7318040132523E-01
(PID.TID 0000.0001) %MON forcing_fv_mean              =  -5.5852022730810E-03
(PID.TID 0000.0001) %MON forcing_fv_sd                =   4.6781725511238E-02
(PID.TID 0000.0001) %MON forcing_fv_del2              =   4.7604155407923E-04
(PID.TID 0000.0001) %MON trAdv_CFL_u_max              =   4.2235122976483E-02
(PID.TID 0000.0001) %MON trAdv_CFL_v_max              =   2.8320917580216E-02
(PID.TID 0000.0001) %MON trAdv_CFL_w_max              =   5.5617849181638E-02
(PID.TID 0000.0001) %MON advcfl_uvel_max              =   4.0088716690704E-02
(PID.TID 0000.0001) %MON advcfl_vvel_max              =   2.8507233604686E-02
(PID.TID 0000.0001) %MON advcfl_wvel_max              =   4.7495352333266E-02
(PID.TID 0000.0001) %MON advcfl_W_hf_max              =   5.2442784867981E-02
(PID.TID 0000.0001) %MON pe_b_mean                    =   3.7808970089370E-04
(PID.TID 0000.0001) %MON ke_max                       =   1.3745577332884E-02
(PID.TID 0000.0001) %MON ke_mean                      =   1.4208545185928E-04
(PID.TID 0000.0001) %MON ke_vol                       =   1.3226782436723E+18
(PID.TID 0000.0001) %MON vort_r_min                   =  -2.5453749180185E-07
(PID.TID 0000.0001) %MON vort_r_max                   =   4.6450487946431E-07
(PID.TID 0000.0001) %MON vort_a_mean                  =  -2.5274806976168E-05
(PID.TID 0000.0001) %MON vort_a_sd                    =   7.3604226304151E-05
(PID.TID 0000.0001) %MON vort_p_mean                  =  -3.1845655268665E-05
(PID.TID 0000.0001) %MON vort_p_sd                    =   1.3162420274332E-04
(PID.TID 0000.0001) %MON surfExpan_theta_mean         =   2.4754699732686E-08
(PID.TID 0000.0001) %MON surfExpan_salt_mean          =   1.2537945982250E-07
(PID.TID 0000.0001) // =======================================================
(PID.TID 0000.0001) // End MONITOR dynamic field statistics
(PID.TID 0000.0001) // =======================================================
 EXTERNAL_FIELDS_LOAD,        21 : iP,iLd,i0,i1=    1    2    1    2 ; Wght=  0.8000000000  0.2000000000
 EXTERNAL_FIELDS_LOAD: (fu0,1),fu,fv= -3.5633E-02 -1.4435E-02 -3.1393E-02 -4.9332E-02
 EXTERNAL_FIELDS_LOAD: SST,SSS,Q,E-P=  6.6037E-01  3.4656E+01  2.6071E+02  1.0985E-05
DEBUG_STATS_RL:          Uvel (THERMODYNAMICS)  min= -1.42740603480009E-01
DEBUG_STATS_RL:          Uvel (THERMODYNAMICS)  max=  1.53341130544460E-01
DEBUG_STATS_RL:          Uvel (THERMODYNAMICS) mean=  2.69818422109575E-03
DEBUG_STATS_RL:          Uvel (THERMODYNAMICS) S.D.=  2.16855743908614E-02
DEBUG_STATS_RL:          Vvel (THERMODYNAMICS)  min= -1.19614555544954E-01
DEBUG_STATS_RL:          Vvel (THERMODYNAMICS)  max=  1.46729731686360E-01
DEBUG_STATS_RL:          Vvel (THERMODYNAMICS) mean=  2.25903682523076E-03
DEBUG_STATS_RL:          Vvel (THERMODYNAMICS) S.D.=  1.67640942451947E-02
DEBUG_STATS_RL:          Wvel (THERMODYNAMICS)  min= -1.57408190978413E-04
DEBUG_STATS_RL:          Wvel (THERMODYNAMICS)  max=  1.30907874687775E-04
DEBUG_STATS_RL:          Wvel (THERMODYNAMICS) mean=  4.26492829038945E-07
DEBUG_STATS_RL:          Wvel (THERMODYNAMICS) S.D.=  1.73632663303252E-05
DEBUG_STATS_RL:         Theta (THERMODYNAMICS)  min= -2.01367223269704E+00
DEBUG_STATS_RL:         Theta (THERMODYNAMICS)  max=  2.98687825515951E+01
DEBUG_STATS_RL:         Theta (THERMODYNAMICS) mean=  3.21887853885113E+00
DEBUG_STATS_RL:         Theta (THERMODYNAMICS) S.D.=  5.85739327715872E+00
DEBUG_STATS_RL:          Salt (THERMODYNAMICS)  min=  9.99999999999999E-03
DEBUG_STATS_RL:          Salt (THERMODYNAMICS)  max=  3.74533269110509E+01
DEBUG_STATS_RL:          Salt (THERMODYNAMICS) mean=  1.88551476275169E+01
DEBUG_STATS_RL:          Salt (THERMODYNAMICS) S.D.=  1.73006330234245E+01
DEBUG_STATS_RL:         GtNm1 (THERMODYNAMICS)  min= -3.57827016191435E-06
DEBUG_STATS_RL:         GtNm1 (THERMODYNAMICS)  max=  2.61734497937284E-06
DEBUG_STATS_RL:         GtNm1 (THERMODYNAMICS) mean=  8.69841522295050E-11
DEBUG_STATS_RL:         GtNm1 (THERMODYNAMICS) S.D.=  2.36724004870186E-07
DEBUG_STATS_RL:         GsNm1 (THERMODYNAMICS)  min= -5.24610553233895E-07
DEBUG_STATS_RL:         GsNm1 (THERMODYNAMICS)  max=  3.56020107213556E-07
DEBUG_STATS_RL:         GsNm1 (THERMODYNAMICS) mean= -4.21005931629866E-10
DEBUG_STATS_RL:         GsNm1 (THERMODYNAMICS) S.D.=  2.11824493385439E-08
DEBUG_STATS_RL:                EtaN (DYNAMICS)  min= -1.58102059509800E+00
DEBUG_STATS_RL:                EtaN (DYNAMICS)  max=  9.97331916939137E-01
DEBUG_STATS_RL:                EtaN (DYNAMICS) mean= -1.60930104868464E-01
DEBUG_STATS_RL:                EtaN (DYNAMICS) S.D.=  6.21388431407003E-01
DEBUG_STATS_RL:                Uvel (DYNAMICS)  min= -1.42740603480009E-01
DEBUG_STATS_RL:                Uvel (DYNAMICS)  max=  1.53341130544460E-01
DEBUG_STATS_RL:                Uvel (DYNAMICS) mean=  2.69818422109575E-03
DEBUG_STATS_RL:                Uvel (DYNAMICS) S.D.=  2.16855743908614E-02
DEBUG_STATS_RL:                Vvel (DYNAMICS)  min= -1.19614555544954E-01
DEBUG_STATS_RL:                Vvel (DYNAMICS)  max=  1.46729731686360E-01
DEBUG_STATS_RL:                Vvel (DYNAMICS) mean=  2.25903682523076E-03
DEBUG_STATS_RL:                Vvel (DYNAMICS) S.D.=  1.67640942451947E-02
DEBUG_STATS_RL:                Wvel (DYNAMICS)  min= -1.57408190978413E-04
DEBUG_STATS_RL:                Wvel (DYNAMICS)  max=  1.30907874687775E-04
DEBUG_STATS_RL:                Wvel (DYNAMICS) mean=  4.26492829038945E-07
DEBUG_STATS_RL:                Wvel (DYNAMICS) S.D.=  1.73632663303252E-05
DEBUG_STATS_RL:               Theta (DYNAMICS)  min= -2.01367223269704E+00
DEBUG_STATS_RL:               Theta (DYNAMICS)  max=  2.98687825515951E+01
DEBUG_STATS_RL:               Theta (DYNAMICS) mean=  3.21887853885113E+00
DEBUG_STATS_RL:               Theta (DYNAMICS) S.D.=  5.85739327715872E+00
DEBUG_STATS_RL:                Salt (DYNAMICS)  min=  9.99999999999999E-03
DEBUG_STATS_RL:                Salt (DYNAMICS)  max=  3.74533269110509E+01
DEBUG_STATS_RL:                Salt (DYNAMICS) mean=  1.88551476275169E+01
DEBUG_STATS_RL:                Salt (DYNAMICS) S.D.=  1.73006330234245E+01
DEBUG_STATS_RL:                  Gu (DYNAMICS)  min= -1.49702892462591E-01
DEBUG_STATS_RL:                  Gu (DYNAMICS)  max=  1.50540175960514E-01
DEBUG_STATS_RL:                  Gu (DYNAMICS) mean=  2.43098247326888E-03
DEBUG_STATS_RL:                  Gu (DYNAMICS) S.D.=  2.13373292925702E-02
DEBUG_STATS_RL:                  Gv (DYNAMICS)  min= -1.36507914544457E-01
DEBUG_STATS_RL:                  Gv (DYNAMICS)  max=  1.68147567560174E-01
DEBUG_STATS_RL:                  Gv (DYNAMICS) mean=  4.27294767900879E-03
DEBUG_STATS_RL:                  Gv (DYNAMICS) S.D.=  1.87013547537340E-02
DEBUG_STATS_RL:               GuNm1 (DYNAMICS)  min= -7.22729687967594E-06
DEBUG_STATS_RL:               GuNm1 (DYNAMICS)  max=  7.88551591466942E-06
DEBUG_STATS_RL:               GuNm1 (DYNAMICS) mean= -1.04917591410753E-08
DEBUG_STATS_RL:               GuNm1 (DYNAMICS) S.D.=  1.15621374621502E-06
DEBUG_STATS_RL:               GvNm1 (DYNAMICS)  min= -9.46312580747064E-06
DEBUG_STATS_RL:               GvNm1 (DYNAMICS)  max=  1.70682287181097E-05
DEBUG_STATS_RL:               GvNm1 (DYNAMICS) mean=  7.72391642181934E-07
DEBUG_STATS_RL:               GvNm1 (DYNAMICS) S.D.=  2.60065802041227E-06
DEBUG_STATS_RL:               GtNm1 (DYNAMICS)  min= -3.57827016191435E-06
DEBUG_STATS_RL:               GtNm1 (DYNAMICS)  max=  2.61734497937284E-06
DEBUG_STATS_RL:               GtNm1 (DYNAMICS) mean=  8.69841522295050E-11
DEBUG_STATS_RL:               GtNm1 (DYNAMICS) S.D.=  2.36724004870186E-07
DEBUG_STATS_RL:               GsNm1 (DYNAMICS)  min= -5.24610553233895E-07
DEBUG_STATS_RL:               GsNm1 (DYNAMICS)  max=  3.56020107213556E-07
DEBUG_STATS_RL:               GsNm1 (DYNAMICS) mean= -4.21005931629866E-10
DEBUG_STATS_RL:               GsNm1 (DYNAMICS) S.D.=  2.11824493385439E-08
DEBUG_STATS_RL:    cg2d_b (SOLVE_FOR_PRESSURE)  min= -2.26018154233523E+04
DEBUG_STATS_RL:    cg2d_b (SOLVE_FOR_PRESSURE)  max=  1.62297559936421E+04
DEBUG_STATS_RL:    cg2d_b (SOLVE_FOR_PRESSURE) mean=  1.53187610020300E+00
DEBUG_STATS_RL:    cg2d_b (SOLVE_FOR_PRESSURE) S.D.=  3.52169678355092E+03
 cg2d: Sum(rhs),rhsMax =   1.56903023298994E-01  1.48454775168753E+00
(PID.TID 0000.0001)  cg2d: iter=     1 ; resid.=  1.99864316291160E-01
(PID.TID 0000.0001)  cg2d: iter=     2 ; resid.=  1.91653976182777E-01
(PID.TID 0000.0001)  cg2d: iter=     3 ; resid.=  1.94375170323319E-01
(PID.TID 0000.0001)  cg2d: iter=     4 ; resid.=  1.84338549366515E-01
(PID.TID 0000.0001)  cg2d: iter=     5 ; resid.=  1.69690635024685E-01
(PID.TID 0000.0001)  cg2d: iter=     6 ; resid.=  1.24667744904877E-01
(PID.TID 0000.0001)  cg2d: iter=     7 ; resid.=  1.11571533346120E-01
(PID.TID 0000.0001)  cg2d: iter=     8 ; resid.=  9.36498107799092E-02
(PID.TID 0000.0001)  cg2d: iter=     9 ; resid.=  7.05386566164175E-02
(PID.TID 0000.0001)  cg2d: iter=    10 ; resid.=  5.67081661050560E-02
(PID.TID 0000.0001)  cg2d: iter=    11 ; resid.=  5.35438368733259E-02
(PID.TID 0000.0001)  cg2d: iter=    12 ; resid.=  4.32660871813722E-02
(PID.TID 0000.0001)  cg2d: iter=    13 ; resid.=  3.43662298875628E-02
(PID.TID 0000.0001)  cg2d: iter=    14 ; resid.=  2.89119845529378E-02
(PID.TID 0000.0001)  cg2d: iter=    15 ; resid.=  2.29397537245288E-02
(PID.TID 0000.0001)  cg2d: iter=    16 ; resid.=  2.03685880561777E-02
(PID.TID 0000.0001)  cg2d: iter=    17 ; resid.=  2.04628967848392E-02
(PID.TID 0000.0001)  cg2d: iter=    18 ; resid.=  1.67537318265993E-02
(PID.TID 0000.0001)  cg2d: iter=    19 ; resid.=  1.33807737164273E-02
(PID.TID 0000.0001)  cg2d: iter=    20 ; resid.=  1.18188579805634E-02
(PID.TID 0000.0001)  cg2d: iter=    21 ; resid.=  9.79518924299668E-03
(PID.TID 0000.0001)  cg2d: iter=    22 ; resid.=  7.87523049646337E-03
(PID.TID 0000.0001)  cg2d: iter=    23 ; resid.=  6.79356407050891E-03
(PID.TID 0000.0001)  cg2d: iter=    24 ; resid.=  6.19530962140004E-03
(PID.TID 0000.0001)  cg2d: iter=    25 ; resid.=  4.80451291201628E-03
(PID.TID 0000.0001)  cg2d: iter=    26 ; resid.=  3.80240700581433E-03
(PID.TID 0000.0001)  cg2d: iter=    27 ; resid.=  3.40542945811683E-03
(PID.TID 0000.0001)  cg2d: iter=    28 ; resid.=  2.88018833504502E-03
(PID.TID 0000.0001)  cg2d: iter=    29 ; resid.=  2.32078756174519E-03
(PID.TID 0000.0001)  cg2d: iter=    30 ; resid.=  1.98255710643042E-03
(PID.TID 0000.0001)  cg2d: iter=    31 ; resid.=  1.70561705138636E-03
(PID.TID 0000.0001)  cg2d: iter=    32 ; resid.=  1.34136205256955E-03
(PID.TID 0000.0001)  cg2d: iter=    33 ; resid.=  1.10748769109382E-03
(PID.TID 0000.0001)  cg2d: iter=    34 ; resid.=  9.64492589989343E-04
(PID.TID 0000.0001)  cg2d: iter=    35 ; resid.=  7.85276708837359E-04
(PID.TID 0000.0001)  cg2d: iter=    36 ; resid.=  6.45977002192186E-04
(PID.TID 0000.0001)  cg2d: iter=    37 ; resid.=  5.72286638069451E-04
(PID.TID 0000.0001)  cg2d: iter=    38 ; resid.=  5.14794572150549E-04
(PID.TID 0000.0001)  cg2d: iter=    39 ; resid.=  4.37351560377546E-04
(PID.TID 0000.0001)  cg2d: iter=    40 ; resid.=  3.74639888865953E-04
(PID.TID 0000.0001)  cg2d: iter=    41 ; resid.=  2.76317827796796E-04
(PID.TID 0000.0001)  cg2d: iter=    42 ; resid.=  2.26513076324787E-04
(PID.TID 0000.0001)  cg2d: iter=    43 ; resid.=  1.86293921711643E-04
(PID.TID 0000.0001)  cg2d: iter=    44 ; resid.=  1.47953081779479E-04
(PID.TID 0000.0001)  cg2d: iter=    45 ; resid.=  1.09098324695854E-04
(PID.TID 0000.0001)  cg2d: iter=    46 ; resid.=  8.68053714055085E-05
(PID.TID 0000.0001)  cg2d: iter=    47 ; resid.=  7.40746019488078E-05
(PID.TID 0000.0001)  cg2d: iter=    48 ; resid.=  6.03038206461166E-05
(PID.TID 0000.0001)  cg2d: iter=    49 ; resid.=  4.73661127455196E-05
(PID.TID 0000.0001)  cg2d: iter=    50 ; resid.=  4.19850121177224E-05
(PID.TID 0000.0001)  cg2d: iter=    51 ; resid.=  3.50840676634144E-05
(PID.TID 0000.0001)  cg2d: iter=    52 ; resid.=  2.93961078200216E-05
(PID.TID 0000.0001)  cg2d: iter=    53 ; resid.=  2.57001564888050E-05
(PID.TID 0000.0001)  cg2d: iter=    54 ; resid.=  2.15246590173154E-05
(PID.TID 0000.0001)  cg2d: iter=    55 ; resid.=  1.71727137859628E-05
(PID.TID 0000.0001)  cg2d: iter=    56 ; resid.=  1.46134253390118E-05
(PID.TID 0000.0001)  cg2d: iter=    57 ; resid.=  1.15993082955099E-05
(PID.TID 0000.0001)  cg2d: iter=    58 ; resid.=  8.57375678356671E-06
(PID.TID 0000.0001)  cg2d: iter=    59 ; resid.=  7.10562655198320E-06
(PID.TID 0000.0001)  cg2d: iter=    60 ; resid.=  5.62245597967723E-06
(PID.TID 0000.0001)  cg2d: iter=    61 ; resid.=  4.46709570963965E-06
(PID.TID 0000.0001)  cg2d: iter=    62 ; resid.=  3.45192821516559E-06
(PID.TID 0000.0001)  cg2d: iter=    63 ; resid.=  2.98836648573948E-06
(PID.TID 0000.0001)  cg2d: iter=    64 ; resid.=  2.49964922486180E-06
(PID.TID 0000.0001)  cg2d: iter=    65 ; resid.=  1.99003402875848E-06
(PID.TID 0000.0001)  cg2d: iter=    66 ; resid.=  1.52316991830818E-06
(PID.TID 0000.0001)  cg2d: iter=    67 ; resid.=  1.27138021929648E-06
(PID.TID 0000.0001)  cg2d: iter=    68 ; resid.=  9.88654776897636E-07
(PID.TID 0000.0001)  cg2d: iter=    69 ; resid.=  7.60706326422505E-07
(PID.TID 0000.0001)  cg2d: iter=    70 ; resid.=  6.39472349221341E-07
(PID.TID 0000.0001)  cg2d: iter=    71 ; resid.=  5.35754617702881E-07
(PID.TID 0000.0001)  cg2d: iter=    72 ; resid.=  4.64810841917534E-07
(PID.TID 0000.0001)  cg2d: iter=    73 ; resid.=  4.43942910496416E-07
(PID.TID 0000.0001)  cg2d: iter=    74 ; resid.=  3.88155378674753E-07
(PID.TID 0000.0001)  cg2d: iter=    75 ; resid.=  3.26001396880245E-07
(PID.TID 0000.0001)  cg2d: iter=    76 ; resid.=  2.70466682744611E-07
(PID.TID 0000.0001)  cg2d: iter=    77 ; resid.=  2.39763079950817E-07
(PID.TID 0000.0001)  cg2d: iter=    78 ; resid.=  1.95802486930785E-07
(PID.TID 0000.0001)  cg2d: iter=    79 ; resid.=  1.72539842793412E-07
(PID.TID 0000.0001)  cg2d: iter=    80 ; resid.=  1.34688370389057E-07
(PID.TID 0000.0001)  cg2d: iter=    81 ; resid.=  9.84535716096769E-08
(PID.TID 0000.0001)  cg2d: iter=    82 ; resid.=  7.88893699366994E-08
(PID.TID 0000.0001)  cg2d: iter=    83 ; resid.=  6.25898007886083E-08
(PID.TID 0000.0001)  cg2d: iter=    84 ; resid.=  4.90478853510210E-08
(PID.TID 0000.0001)  cg2d: iter=    85 ; resid.=  3.73252176345405E-08
(PID.TID 0000.0001)  cg2d: iter=    86 ; resid.=  2.88501431084885E-08
(PID.TID 0000.0001)  cg2d: iter=    87 ; resid.=  2.47681224878531E-08
(PID.TID 0000.0001)  cg2d: iter=    88 ; resid.=  2.07452860495941E-08
(PID.TID 0000.0001)  cg2d: iter=    89 ; resid.=  1.65530795283470E-08
(PID.TID 0000.0001)  cg2d: iter=    90 ; resid.=  1.22677097545874E-08
(PID.TID 0000.0001)  cg2d: iter=    91 ; resid.=  9.60971815998265E-09
(PID.TID 0000.0001)  cg2d: iter=    92 ; resid.=  7.29519325346151E-09
(PID.TID 0000.0001)  cg2d: iter=    93 ; resid.=  4.63153083916160E-09
(PID.TID 0000.0001)  cg2d: iter=    94 ; resid.=  3.21733137911900E-09
(PID.TID 0000.0001)  cg2d: iter=    95 ; resid.=  2.38602892468641E-09
(PID.TID 0000.0001)  cg2d: iter=    96 ; resid.=  1.83654953324929E-09
(PID.TID 0000.0001)  cg2d: iter=    97 ; resid.=  1.44283276779643E-09
(PID.TID 0000.0001)  cg2d: iter=    98 ; resid.=  1.19286270734907E-09
(PID.TID 0000.0001)  cg2d: iter=    99 ; resid.=  1.00143269962075E-09
(PID.TID 0000.0001)  cg2d: iter=   100 ; resid.=  8.88178818135093E-10
(PID.TID 0000.0001)  cg2d: iter=   101 ; resid.=  7.95021262234792E-10
(PID.TID 0000.0001)  cg2d: iter=   102 ; resid.=  6.88880193978109E-10
(PID.TID 0000.0001)  cg2d: iter=   103 ; resid.=  5.97503631093486E-10
(PID.TID 0000.0001)  cg2d: iter=   104 ; resid.=  4.79604365194390E-10
(PID.TID 0000.0001)  cg2d: iter=   105 ; resid.=  3.52465362252473E-10
(PID.TID 0000.0001)  cg2d: iter=   106 ; resid.=  2.66853584965669E-10
(PID.TID 0000.0001)  cg2d: iter=   107 ; resid.=  1.94205839147856E-10
(PID.TID 0000.0001)  cg2d: iter=   108 ; resid.=  1.38616896486066E-10
(PID.TID 0000.0001)  cg2d: iter=   109 ; resid.=  1.05614614191719E-10
(PID.TID 0000.0001)  cg2d: iter=   110 ; resid.=  8.53532132239267E-11
(PID.TID 0000.0001)  cg2d: iter=   111 ; resid.=  7.12791708689752E-11
(PID.TID 0000.0001)  cg2d: iter=   112 ; resid.=  5.70789475569010E-11
(PID.TID 0000.0001)  cg2d: iter=   113 ; resid.=  4.38912578735228E-11
(PID.TID 0000.0001)  cg2d: iter=   114 ; resid.=  3.38983601503594E-11
(PID.TID 0000.0001)  cg2d: iter=   115 ; resid.=  2.51500564876612E-11
(PID.TID 0000.0001)  cg2d: iter=   116 ; resid.=  1.82406914974017E-11
(PID.TID 0000.0001)  cg2d: iter=   117 ; resid.=  1.41045215428210E-11
(PID.TID 0000.0001)  cg2d: iter=   118 ; resid.=  1.07217718534846E-11
(PID.TID 0000.0001)  cg2d: iter=   119 ; resid.=  7.98878365100280E-12
(PID.TID 0000.0001)  cg2d: iter=   120 ; resid.=  6.27129379985823E-12
(PID.TID 0000.0001)  cg2d: iter=   121 ; resid.=  4.61786691626805E-12
(PID.TID 0000.0001)  cg2d: iter=   122 ; resid.=  3.38473193441839E-12
(PID.TID 0000.0001)  cg2d: iter=   123 ; resid.=  2.37604672824662E-12
(PID.TID 0000.0001)  cg2d: iter=   124 ; resid.=  1.63475195859569E-12
(PID.TID 0000.0001)  cg2d: iter=   125 ; resid.=  1.19130208645165E-12
(PID.TID 0000.0001)  cg2d: iter=   126 ; resid.=  8.36003195334994E-13
(PID.TID 0000.0001)  cg2d: iter=   127 ; resid.=  5.60896331253013E-13
(PID.TID 0000.0001)  cg2d: iter=   128 ; resid.=  3.98522577261007E-13
(PID.TID 0000.0001)  cg2d: iter=   129 ; resid.=  3.10972009793345E-13
(PID.TID 0000.0001)  cg2d: iter=   130 ; resid.=  2.42566520188945E-13
(PID.TID 0000.0001)  cg2d: iter=   131 ; resid.=  1.88874790119619E-13
(PID.TID 0000.0001)  cg2d: iter=   132 ; resid.=  1.48659036584076E-13
(PID.TID 0000.0001)  cg2d: iter=   133 ; resid.=  1.20948110343517E-13
(PID.TID 0000.0001)  cg2d: iter=   134 ; resid.=  9.87405164428126E-14
DEBUG_STATS_RL:    cg2d_x (SOLVE_FOR_PRESSURE)  min= -1.58774128610743E+01
DEBUG_STATS_RL:    cg2d_x (SOLVE_FOR_PRESSURE)  max=  8.92984940246031E+00
DEBUG_STATS_RL:    cg2d_x (SOLVE_FOR_PRESSURE) mean= -1.56944917983128E+00
DEBUG_STATS_RL:    cg2d_x (SOLVE_FOR_PRESSURE) S.D.=  6.09171169173851E+00
(PID.TID 0000.0001)      cg2d_init_res =   4.83606251823458E-01
(PID.TID 0000.0001)      cg2d_iters(min,last) =      -1     134
(PID.TID 0000.0001)      cg2d_last_res =   9.87405164428126E-14
(PID.TID 0000.0001) // =======================================================
(PID.TID 0000.0001) // Begin MONITOR dynamic field statistics
(PID.TID 0000.0001) // =======================================================
(PID.TID 0000.0001) %MON time_tsnumber                =                    22
(PID.TID 0000.0001) %MON time_secondsf                =   1.9008000000000E+06
(PID.TID 0000.0001) %MON dynstat_eta_max              =   9.1028026528646E-01
(PID.TID 0000.0001) %MON dynstat_eta_min              =  -1.6184926463887E+00
(PID.TID 0000.0001) %MON dynstat_eta_mean             =  -1.5983227641958E-03
(PID.TID 0000.0001) %MON dynstat_eta_sd               =   5.4036879562881E-01
(PID.TID 0000.0001) %MON dynstat_eta_del2             =   1.8879278505917E-03
(PID.TID 0000.0001) %MON dynstat_uvel_max             =   1.4319044594384E-01
(PID.TID 0000.0001) %MON dynstat_uvel_min             =  -1.4833476151786E-01
(PID.TID 0000.0001) %MON dynstat_uvel_mean            =  -4.2339035199970E-04
(PID.TID 0000.0001) %MON dynstat_uvel_sd              =   1.3982257421003E-02
(PID.TID 0000.0001) %MON dynstat_uvel_del2            =   8.9443146890115E-05
(PID.TID 0000.0001) %MON dynstat_vvel_max             =   1.4910437285357E-01
(PID.TID 0000.0001) %MON dynstat_vvel_min             =  -1.2596987579184E-01
(PID.TID 0000.0001) %MON dynstat_vvel_mean            =   3.6703172224463E-04
(PID.TID 0000.0001) %MON dynstat_vvel_sd              =   1.0293927303100E-02
(PID.TID 0000.0001) %MON dynstat_vvel_del2            =   9.0082823262939E-05
(PID.TID 0000.0001) %MON dynstat_wvel_max             =   1.2642553862289E-04
(PID.TID 0000.0001) %MON dynstat_wvel_min             =  -1.4750556038937E-04
(PID.TID 0000.0001) %MON dynstat_wvel_mean            =  -6.7457490199709E-23
(PID.TID 0000.0001) %MON dynstat_wvel_sd              =   1.8425405565512E-05
(PID.TID 0000.0001) %MON dynstat_wvel_del2            =   2.0495891556385E-07
(PID.TID 0000.0001) %MON dynstat_theta_max            =   2.9868782551595E+01
(PID.TID 0000.0001) %MON dynstat_theta_min            =  -2.0136722326970E+00
(PID.TID 0000.0001) %MON dynstat_theta_mean           =   3.6304011177204E+00
(PID.TID 0000.0001) %MON dynstat_theta_sd             =   4.4160489788646E+00
(PID.TID 0000.0001) %MON dynstat_theta_del2           =   4.8476733573027E-03
(PID.TID 0000.0001) %MON dynstat_salt_max             =   3.7453326911051E+01
(PID.TID 0000.0001) %MON dynstat_salt_min             =   2.9791659989670E+01
(PID.TID 0000.0001) %MON dynstat_salt_mean            =   3.4727963346009E+01
(PID.TID 0000.0001) %MON dynstat_salt_sd              =   2.9621475381272E-01
(PID.TID 0000.0001) %MON dynstat_salt_del2            =   1.0094625841331E-03
(PID.TID 0000.0001) %MON dynstat_sst_max              =   2.9868782551595E+01
(PID.TID 0000.0001) %MON dynstat_sst_min              =  -2.0136722326970E+00
(PID.TID 0000.0001) %MON dynstat_sst_mean             =   1.8704888246690E+01
(PID.TID 0000.0001) %MON dynstat_sst_sd               =   9.0582951015946E+00
(PID.TID 0000.0001) %MON dynstat_sst_del2             =   2.6394037966961E-02
(PID.TID 0000.0001) %MON dynstat_sss_max              =   3.7440319918964E+01
(PID.TID 0000.0001) %MON dynstat_sss_min              =   2.9791659989670E+01
(PID.TID 0000.0001) %MON dynstat_sss_mean             =   3.4861695846516E+01
(PID.TID 0000.0001) %MON dynstat_sss_sd               =   9.7288257002991E-01
(PID.TID 0000.0001) %MON dynstat_sss_del2             =   7.9731674038091E-03
(PID.TID 0000.0001) %MON forcing_qnet_max             =   4.2169909667969E+02
(PID.TID 0000.0001) %MON forcing_qnet_min             =  -1.7858243103027E+02
(PID.TID 0000.0001) %MON forcing_qnet_mean            =  -1.6003070996624E+01
(PID.TID 0000.0001) %MON forcing_qnet_sd              =   1.0345568885738E+02
(PID.TID 0000.0001) %MON forcing_qnet_del2            =   1.0009668564957E+00
(PID.TID 0000.0001) %MON forcing_qsw_max              =   0.0000000000000E+00
(PID.TID 0000.0001) %MON forcing_qsw_min              =   0.0000000000000E+00
(PID.TID 0000.0001) %MON forcing_qsw_mean             =   0.0000000000000E+00
(PID.TID 0000.0001) %MON forcing_qsw_sd               =   0.0000000000000E+00
(PID.TID 0000.0001) %MON forcing_qsw_del2             =   0.0000000000000E+00
(PID.TID 0000.0001) %MON forcing_empmr_max            =   8.0289700576941E-05
(PID.TID 0000.0001) %MON forcing_empmr_min            =  -7.6633821777250E-05
(PID.TID 0000.0001) %MON forcing_empmr_mean           =   9.2703144567037E-07
(PID.TID 0000.0001) %MON forcing_empmr_sd             =   2.8506708365835E-05
(PID.TID 0000.0001) %MON forcing_empmr_del2           =   3.6098786833147E-07
(PID.TID 0000.0001) %MON forcing_fu_max               =   2.7760242819786E-01
(PID.TID 0000.0001) %MON forcing_fu_min               =  -1.7589417994022E-01
(PID.TID 0000.0001) %MON forcing_fu_mean              =   1.6327536445380E-02
(PID.TID 0000.0001) %MON forcing_fu_sd                =   9.0202228865328E-02
(PID.TID 0000.0001) %MON forcing_fu_del2              =   6.8655513835804E-04
(PID.TID 0000.0001) %MON forcing_fv_max               =   2.1387063860893E-01
(PID.TID 0000.0001) %MON forcing_fv_min               =  -1.7218910157681E-01
(PID.TID 0000.0001) %MON forcing_fv_mean              =  -5.6504631797962E-03
(PID.TID 0000.0001) %MON forcing_fv_sd                =   4.6529078937274E-02
(PID.TID 0000.0001) %MON forcing_fv_del2              =   4.7274716093950E-04
(PID.TID 0000.0001) %MON trAdv_CFL_u_max              =   4.0096858995783E-02
(PID.TID 0000.0001) %MON trAdv_CFL_v_max              =   2.9526100304329E-02
(PID.TID 0000.0001) %MON trAdv_CFL_w_max              =   5.2442784867981E-02
(PID.TID 0000.0001) %MON advcfl_uvel_max              =   3.7434973903456E-02
(PID.TID 0000.0001) %MON advcfl_vvel_max              =   2.8968588298809E-02
(PID.TID 0000.0001) %MON advcfl_wvel_max              =   4.4331285214332E-02
(PID.TID 0000.0001) %MON advcfl_W_hf_max              =   4.8949127424159E-02
(PID.TID 0000.0001) %MON pe_b_mean                    =   3.7365046231493E-04
(PID.TID 0000.0001) %MON ke_max                       =   1.2846257225397E-02
(PID.TID 0000.0001) %MON ke_mean                      =   1.3653443400635E-04
(PID.TID 0000.0001) %MON ke_vol                       =   1.3226782436723E+18
(PID.TID 0000.0001) %MON vort_r_min                   =  -2.5523952317919E-07
(PID.TID 0000.0001) %MON vort_r_max                   =   4.5687589435019E-07
(PID.TID 0000.0001) %MON vort_a_mean                  =  -2.5274806878435E-05
(PID.TID 0000.0001) %MON vort_a_sd                    =   7.3604255831285E-05
(PID.TID 0000.0001) %MON vort_p_mean                  =  -3.1845655145524E-05
(PID.TID 0000.0001) %MON vort_p_sd                    =   1.3162469667440E-04
(PID.TID 0000.0001) %MON surfExpan_theta_mean         =  -9.7560787120322E-08
(PID.TID 0000.0001) %MON surfExpan_salt_mean          =   1.1977394283590E-07
(PID.TID 0000.0001) // =======================================================
(PID.TID 0000.0001) // End MONITOR dynamic field statistics
(PID.TID 0000.0001) // =======================================================
 EXTERNAL_FIELDS_LOAD,        22 : iP,iLd,i0,i1=    1    2    1    2 ; Wght=  0.7666666667  0.2333333333
 EXTERNAL_FIELDS_LOAD: (fu0,1),fu,fv= -3.5633E-02 -1.4435E-02 -3.0687E-02 -4.8012E-02
 EXTERNAL_FIELDS_LOAD: SST,SSS,Q,E-P=  6.1069E-01  3.4646E+01  2.5987E+02  1.0876E-05
DEBUG_STATS_RL:          Uvel (THERMODYNAMICS)  min= -1.48334761517863E-01
DEBUG_STATS_RL:          Uvel (THERMODYNAMICS)  max=  1.43190445943844E-01
DEBUG_STATS_RL:          Uvel (THERMODYNAMICS) mean=  2.56842780539335E-03
DEBUG_STATS_RL:          Uvel (THERMODYNAMICS) S.D.=  2.08976236699619E-02
DEBUG_STATS_RL:          Vvel (THERMODYNAMICS)  min= -1.25969875791843E-01
DEBUG_STATS_RL:          Vvel (THERMODYNAMICS)  max=  1.49104372853566E-01
DEBUG_STATS_RL:          Vvel (THERMODYNAMICS) mean=  2.23578012852658E-03
DEBUG_STATS_RL:          Vvel (THERMODYNAMICS) S.D.=  1.68312876743085E-02
DEBUG_STATS_RL:          Wvel (THERMODYNAMICS)  min= -1.47505560389369E-04
DEBUG_STATS_RL:          Wvel (THERMODYNAMICS)  max=  1.26425538622889E-04
DEBUG_STATS_RL:          Wvel (THERMODYNAMICS) mean=  4.38222059608208E-07
DEBUG_STATS_RL:          Wvel (THERMODYNAMICS) S.D.=  1.67510890456990E-05
DEBUG_STATS_RL:         Theta (THERMODYNAMICS)  min= -2.01256635868859E+00
DEBUG_STATS_RL:         Theta (THERMODYNAMICS)  max=  2.98787852719951E+01
DEBUG_STATS_RL:         Theta (THERMODYNAMICS) mean=  3.21881815333782E+00
DEBUG_STATS_RL:         Theta (THERMODYNAMICS) S.D.=  5.85757630828991E+00
DEBUG_STATS_RL:          Salt (THERMODYNAMICS)  min=  9.99999999999999E-03
DEBUG_STATS_RL:          Salt (THERMODYNAMICS)  max=  3.74542907467058E+01
DEBUG_STATS_RL:          Salt (THERMODYNAMICS) mean=  1.88551266608116E+01
DEBUG_STATS_RL:          Salt (THERMODYNAMICS) S.D.=  1.73006138375420E+01
DEBUG_STATS_RL:         GtNm1 (THERMODYNAMICS)  min= -3.57006064039973E-06
DEBUG_STATS_RL:         GtNm1 (THERMODYNAMICS)  max=  2.57177274432427E-06
DEBUG_STATS_RL:         GtNm1 (THERMODYNAMICS) mean= -7.20139765862309E-10
DEBUG_STATS_RL:         GtNm1 (THERMODYNAMICS) S.D.=  2.35858085621750E-07
DEBUG_STATS_RL:         GsNm1 (THERMODYNAMICS)  min= -5.16219186676430E-07
DEBUG_STATS_RL:         GsNm1 (THERMODYNAMICS)  max=  3.68498145800853E-07
DEBUG_STATS_RL:         GsNm1 (THERMODYNAMICS) mean= -5.02440966582013E-10
DEBUG_STATS_RL:         GsNm1 (THERMODYNAMICS) S.D.=  2.12538524134075E-08
DEBUG_STATS_RL:                EtaN (DYNAMICS)  min= -1.61849264638874E+00
DEBUG_STATS_RL:                EtaN (DYNAMICS)  max=  9.10280265286464E-01
DEBUG_STATS_RL:                EtaN (DYNAMICS) mean= -1.59984625874747E-01
DEBUG_STATS_RL:                EtaN (DYNAMICS) S.D.=  6.20969591410651E-01
DEBUG_STATS_RL:                Uvel (DYNAMICS)  min= -1.48334761517863E-01
DEBUG_STATS_RL:                Uvel (DYNAMICS)  max=  1.43190445943844E-01
DEBUG_STATS_RL:                Uvel (DYNAMICS) mean=  2.56842780539335E-03
DEBUG_STATS_RL:                Uvel (DYNAMICS) S.D.=  2.08976236699619E-02
DEBUG_STATS_RL:                Vvel (DYNAMICS)  min= -1.25969875791843E-01
DEBUG_STATS_RL:                Vvel (DYNAMICS)  max=  1.49104372853566E-01
DEBUG_STATS_RL:                Vvel (DYNAMICS) mean=  2.23578012852658E-03
DEBUG_STATS_RL:                Vvel (DYNAMICS) S.D.=  1.68312876743085E-02
DEBUG_STATS_RL:                Wvel (DYNAMICS)  min= -1.47505560389369E-04
DEBUG_STATS_RL:                Wvel (DYNAMICS)  max=  1.26425538622889E-04
DEBUG_STATS_RL:                Wvel (DYNAMICS) mean=  4.38222059608208E-07
DEBUG_STATS_RL:                Wvel (DYNAMICS) S.D.=  1.67510890456990E-05
DEBUG_STATS_RL:               Theta (DYNAMICS)  min= -2.01256635868859E+00
DEBUG_STATS_RL:               Theta (DYNAMICS)  max=  2.98787852719951E+01
DEBUG_STATS_RL:               Theta (DYNAMICS) mean=  3.21881815333782E+00
DEBUG_STATS_RL:               Theta (DYNAMICS) S.D.=  5.85757630828991E+00
DEBUG_STATS_RL:                Salt (DYNAMICS)  min=  9.99999999999999E-03
DEBUG_STATS_RL:                Salt (DYNAMICS)  max=  3.74542907467058E+01
DEBUG_STATS_RL:                Salt (DYNAMICS) mean=  1.88551266608116E+01
DEBUG_STATS_RL:                Salt (DYNAMICS) S.D.=  1.73006138375420E+01
DEBUG_STATS_RL:                  Gu (DYNAMICS)  min= -1.54836073371992E-01
DEBUG_STATS_RL:                  Gu (DYNAMICS)  max=  1.42764115162768E-01
DEBUG_STATS_RL:                  Gu (DYNAMICS) mean=  2.37631780557156E-03
DEBUG_STATS_RL:                  Gu (DYNAMICS) S.D.=  2.06541502419421E-02
DEBUG_STATS_RL:                  Gv (DYNAMICS)  min= -1.41119395672290E-01
DEBUG_STATS_RL:                  Gv (DYNAMICS)  max=  1.67253215737485E-01
DEBUG_STATS_RL:                  Gv (DYNAMICS) mean=  4.24725611255290E-03
DEBUG_STATS_RL:                  Gv (DYNAMICS) S.D.=  1.86076380590251E-02
DEBUG_STATS_RL:               GuNm1 (DYNAMICS)  min= -7.25617620775316E-06
DEBUG_STATS_RL:               GuNm1 (DYNAMICS)  max=  7.92604535839820E-06
DEBUG_STATS_RL:               GuNm1 (DYNAMICS) mean= -1.00343427694609E-08
DEBUG_STATS_RL:               GuNm1 (DYNAMICS) S.D.=  1.16659850815294E-06
DEBUG_STATS_RL:               GvNm1 (DYNAMICS)  min= -9.70043441686594E-06
DEBUG_STATS_RL:               GvNm1 (DYNAMICS)  max=  1.70867091878114E-05
DEBUG_STATS_RL:               GvNm1 (DYNAMICS) mean=  7.72194844673172E-07
DEBUG_STATS_RL:               GvNm1 (DYNAMICS) S.D.=  2.61055280543906E-06
DEBUG_STATS_RL:               GtNm1 (DYNAMICS)  min= -3.57006064039973E-06
DEBUG_STATS_RL:               GtNm1 (DYNAMICS)  max=  2.57177274432427E-06
DEBUG_STATS_RL:               GtNm1 (DYNAMICS) mean= -7.20139765862309E-10
DEBUG_STATS_RL:               GtNm1 (DYNAMICS) S.D.=  2.35858085621750E-07
DEBUG_STATS_RL:               GsNm1 (DYNAMICS)  min= -5.16219186676430E-07
DEBUG_STATS_RL:               GsNm1 (DYNAMICS)  max=  3.68498145800853E-07
DEBUG_STATS_RL:               GsNm1 (DYNAMICS) mean= -5.02440966582013E-10
DEBUG_STATS_RL:               GsNm1 (DYNAMICS) S.D.=  2.12538524134075E-08
DEBUG_STATS_RL:    cg2d_b (SOLVE_FOR_PRESSURE)  min= -2.30572419839810E+04
DEBUG_STATS_RL:    cg2d_b (SOLVE_FOR_PRESSURE)  max=  1.67920301088927E+04
DEBUG_STATS_RL:    cg2d_b (SOLVE_FOR_PRESSURE) mean=  1.60610048133474E+00
DEBUG_STATS_RL:    cg2d_b (SOLVE_FOR_PRESSURE) S.D.=  3.58698961286130E+03
 cg2d: Sum(rhs),rhsMax =   1.61256173521360E-01  1.51446138756040E+00
(PID.TID 0000.0001)  cg2d: iter=     1 ; resid.=  1.90760510656800E-01
(PID.TID 0000.0001)  cg2d: iter=     2 ; resid.=  1.84254283129933E-01
(PID.TID 0000.0001)  cg2d: iter=     3 ; resid.=  1.84472091074550E-01
(PID.TID 0000.0001)  cg2d: iter=     4 ; resid.=  1.73071125838996E-01
(PID.TID 0000.0001)  cg2d: iter=     5 ; resid.=  1.52708659119691E-01
(PID.TID 0000.0001)  cg2d: iter=     6 ; resid.=  1.12410934116411E-01
(PID.TID 0000.0001)  cg2d: iter=     7 ; resid.=  9.87879447190809E-02
(PID.TID 0000.0001)  cg2d: iter=     8 ; resid.=  8.45506611823364E-02
(PID.TID 0000.0001)  cg2d: iter=     9 ; resid.=  6.45330735953242E-02
(PID.TID 0000.0001)  cg2d: iter=    10 ; resid.=  5.25380943782445E-02
(PID.TID 0000.0001)  cg2d: iter=    11 ; resid.=  4.99443794206573E-02
(PID.TID 0000.0001)  cg2d: iter=    12 ; resid.=  4.05507532925976E-02
(PID.TID 0000.0001)  cg2d: iter=    13 ; resid.=  3.19191961915151E-02
(PID.TID 0000.0001)  cg2d: iter=    14 ; resid.=  2.62457444537572E-02
(PID.TID 0000.0001)  cg2d: iter=    15 ; resid.=  2.04893119609246E-02
(PID.TID 0000.0001)  cg2d: iter=    16 ; resid.=  1.78947350904597E-02
(PID.TID 0000.0001)  cg2d: iter=    17 ; resid.=  1.79059020693460E-02
(PID.TID 0000.0001)  cg2d: iter=    18 ; resid.=  1.50966370998734E-02
(PID.TID 0000.0001)  cg2d: iter=    19 ; resid.=  1.21525378682215E-02
(PID.TID 0000.0001)  cg2d: iter=    20 ; resid.=  1.05477552871748E-02
(PID.TID 0000.0001)  cg2d: iter=    21 ; resid.=  8.75540157946121E-03
(PID.TID 0000.0001)  cg2d: iter=    22 ; resid.=  6.96733567552233E-03
(PID.TID 0000.0001)  cg2d: iter=    23 ; resid.=  5.87800659595326E-03
(PID.TID 0000.0001)  cg2d: iter=    24 ; resid.=  5.27332534082734E-03
(PID.TID 0000.0001)  cg2d: iter=    25 ; resid.=  4.17598569422417E-03
(PID.TID 0000.0001)  cg2d: iter=    26 ; resid.=  3.37910050746312E-03
(PID.TID 0000.0001)  cg2d: iter=    27 ; resid.=  3.11894049456240E-03
(PID.TID 0000.0001)  cg2d: iter=    28 ; resid.=  2.62020633399848E-03
(PID.TID 0000.0001)  cg2d: iter=    29 ; resid.=  2.08855065662514E-03
(PID.TID 0000.0001)  cg2d: iter=    30 ; resid.=  1.74356780817478E-03
(PID.TID 0000.0001)  cg2d: iter=    31 ; resid.=  1.49222835727262E-03
(PID.TID 0000.0001)  cg2d: iter=    32 ; resid.=  1.16773184482843E-03
(PID.TID 0000.0001)  cg2d: iter=    33 ; resid.=  9.58547207805267E-04
(PID.TID 0000.0001)  cg2d: iter=    34 ; resid.=  8.30255643244649E-04
(PID.TID 0000.0001)  cg2d: iter=    35 ; resid.=  6.96307584129378E-04
(PID.TID 0000.0001)  cg2d: iter=    36 ; resid.=  5.80797868746678E-04
(PID.TID 0000.0001)  cg2d: iter=    37 ; resid.=  5.14656547902015E-04
(PID.TID 0000.0001)  cg2d: iter=    38 ; resid.=  4.61117952062777E-04
(PID.TID 0000.0001)  cg2d: iter=    39 ; resid.=  3.98499023676571E-04
(PID.TID 0000.0001)  cg2d: iter=    40 ; resid.=  3.42170498572759E-04
(PID.TID 0000.0001)  cg2d: iter=    41 ; resid.=  2.61263092146116E-04
(PID.TID 0000.0001)  cg2d: iter=    42 ; resid.=  2.18441092879566E-04
(PID.TID 0000.0001)  cg2d: iter=    43 ; resid.=  1.85654984024251E-04
(PID.TID 0000.0001)  cg2d: iter=    44 ; resid.=  1.50475987036643E-04
(PID.TID 0000.0001)  cg2d: iter=    45 ; resid.=  1.11025349561041E-04
(PID.TID 0000.0001)  cg2d: iter=    46 ; resid.=  8.50694460201937E-05
(PID.TID 0000.0001)  cg2d: iter=    47 ; resid.=  7.02112277293181E-05
(PID.TID 0000.0001)  cg2d: iter=    48 ; resid.=  5.65745511301589E-05
(PID.TID 0000.0001)  cg2d: iter=    49 ; resid.=  4.44490526914003E-05
(PID.TID 0000.0001)  cg2d: iter=    50 ; resid.=  3.91579255379967E-05
(PID.TID 0000.0001)  cg2d: iter=    51 ; resid.=  3.35443437776631E-05
(PID.TID 0000.0001)  cg2d: iter=    52 ; resid.=  2.91481872042922E-05
(PID.TID 0000.0001)  cg2d: iter=    53 ; resid.=  2.60665454319255E-05
(PID.TID 0000.0001)  cg2d: iter=    54 ; resid.=  2.18335585544871E-05
(PID.TID 0000.0001)  cg2d: iter=    55 ; resid.=  1.71182569873238E-05
(PID.TID 0000.0001)  cg2d: iter=    56 ; resid.=  1.46968134190719E-05
(PID.TID 0000.0001)  cg2d: iter=    57 ; resid.=  1.19614964582036E-05
(PID.TID 0000.0001)  cg2d: iter=    58 ; resid.=  9.06133572720237E-06
(PID.TID 0000.0001)  cg2d: iter=    59 ; resid.=  7.59946791918621E-06
(PID.TID 0000.0001)  cg2d: iter=    60 ; resid.=  6.03611834385706E-06
(PID.TID 0000.0001)  cg2d: iter=    61 ; resid.=  4.77067848616184E-06
(PID.TID 0000.0001)  cg2d: iter=    62 ; resid.=  3.74333884725052E-06
(PID.TID 0000.0001)  cg2d: iter=    63 ; resid.=  3.26422007671294E-06
(PID.TID 0000.0001)  cg2d: iter=    64 ; resid.=  2.72669454984855E-06
(PID.TID 0000.0001)  cg2d: iter=    65 ; resid.=  2.19221456104063E-06
(PID.TID 0000.0001)  cg2d: iter=    66 ; resid.=  1.73107900706241E-06
(PID.TID 0000.0001)  cg2d: iter=    67 ; resid.=  1.46073224854891E-06
(PID.TID 0000.0001)  cg2d: iter=    68 ; resid.=  1.16801032259070E-06
(PID.TID 0000.0001)  cg2d: iter=    69 ; resid.=  9.20005747346116E-07
(PID.TID 0000.0001)  cg2d: iter=    70 ; resid.=  8.16487698349515E-07
(PID.TID 0000.0001)  cg2d: iter=    71 ; resid.=  6.92496783211031E-07
(PID.TID 0000.0001)  cg2d: iter=    72 ; resid.=  5.99831134005830E-07
(PID.TID 0000.0001)  cg2d: iter=    73 ; resid.=  5.58104787221414E-07
(PID.TID 0000.0001)  cg2d: iter=    74 ; resid.=  4.71598404840470E-07
(PID.TID 0000.0001)  cg2d: iter=    75 ; resid.=  3.80809520325197E-07
(PID.TID 0000.0001)  cg2d: iter=    76 ; resid.=  3.09858532924825E-07
(PID.TID 0000.0001)  cg2d: iter=    77 ; resid.=  2.65829803634996E-07
(PID.TID 0000.0001)  cg2d: iter=    78 ; resid.=  2.07732435621641E-07
(PID.TID 0000.0001)  cg2d: iter=    79 ; resid.=  1.79622430479575E-07
(PID.TID 0000.0001)  cg2d: iter=    80 ; resid.=  1.40931030649936E-07
(PID.TID 0000.0001)  cg2d: iter=    81 ; resid.=  1.02327602981899E-07
(PID.TID 0000.0001)  cg2d: iter=    82 ; resid.=  7.99452526620564E-08
(PID.TID 0000.0001)  cg2d: iter=    83 ; resid.=  6.12910368015052E-08
(PID.TID 0000.0001)  cg2d: iter=    84 ; resid.=  4.72906031201645E-08
(PID.TID 0000.0001)  cg2d: iter=    85 ; resid.=  3.49316912930502E-08
(PID.TID 0000.0001)  cg2d: iter=    86 ; resid.=  2.69341031845429E-08
(PID.TID 0000.0001)  cg2d: iter=    87 ; resid.=  2.28684518993305E-08
(PID.TID 0000.0001)  cg2d: iter=    88 ; resid.=  1.94835092694086E-08
(PID.TID 0000.0001)  cg2d: iter=    89 ; resid.=  1.60197685229554E-08
(PID.TID 0000.0001)  cg2d: iter=    90 ; resid.=  1.21251007315381E-08
(PID.TID 0000.0001)  cg2d: iter=    91 ; resid.=  9.43633987135718E-09
(PID.TID 0000.0001)  cg2d: iter=    92 ; resid.=  6.88072604945099E-09
(PID.TID 0000.0001)  cg2d: iter=    93 ; resid.=  4.24128059840550E-09
(PID.TID 0000.0001)  cg2d: iter=    94 ; resid.=  2.79639458929085E-09
(PID.TID 0000.0001)  cg2d: iter=    95 ; resid.=  1.98928028763357E-09
(PID.TID 0000.0001)  cg2d: iter=    96 ; resid.=  1.47579583468169E-09
(PID.TID 0000.0001)  cg2d: iter=    97 ; resid.=  1.11450876320252E-09
(PID.TID 0000.0001)  cg2d: iter=    98 ; resid.=  8.84435799161780E-10
(PID.TID 0000.0001)  cg2d: iter=    99 ; resid.=  7.07538899106607E-10
(PID.TID 0000.0001)  cg2d: iter=   100 ; resid.=  5.96926192112524E-10
(PID.TID 0000.0001)  cg2d: iter=   101 ; resid.=  5.07575336408817E-10
(PID.TID 0000.0001)  cg2d: iter=   102 ; resid.=  4.26618160504375E-10
(PID.TID 0000.0001)  cg2d: iter=   103 ; resid.=  3.64494715983568E-10
(PID.TID 0000.0001)  cg2d: iter=   104 ; resid.=  2.98214812981259E-10
(PID.TID 0000.0001)  cg2d: iter=   105 ; resid.=  2.30312328207083E-10
(PID.TID 0000.0001)  cg2d: iter=   106 ; resid.=  1.91844742719883E-10
(PID.TID 0000.0001)  cg2d: iter=   107 ; resid.=  1.58630706849938E-10
(PID.TID 0000.0001)  cg2d: iter=   108 ; resid.=  1.23134085748228E-10
(PID.TID 0000.0001)  cg2d: iter=   109 ; resid.=  9.87721838726269E-11
(PID.TID 0000.0001)  cg2d: iter=   110 ; resid.=  8.17138755055001E-11
(PID.TID 0000.0001)  cg2d: iter=   111 ; resid.=  6.73925857875631E-11
(PID.TID 0000.0001)  cg2d: iter=   112 ; resid.=  5.36699807004749E-11
(PID.TID 0000.0001)  cg2d: iter=   113 ; resid.=  4.18405451851178E-11
(PID.TID 0000.0001)  cg2d: iter=   114 ; resid.=  3.25298449372228E-11
(PID.TID 0000.0001)  cg2d: iter=   115 ; resid.=  2.45817555730631E-11
(PID.TID 0000.0001)  cg2d: iter=   116 ; resid.=  1.89082590652261E-11
(PID.TID 0000.0001)  cg2d: iter=   117 ; resid.=  1.53372591496551E-11
(PID.TID 0000.0001)  cg2d: iter=   118 ; resid.=  1.17265843870851E-11
(PID.TID 0000.0001)  cg2d: iter=   119 ; resid.=  8.73422878154913E-12
(PID.TID 0000.0001)  cg2d: iter=   120 ; resid.=  6.71359455217732E-12
(PID.TID 0000.0001)  cg2d: iter=   121 ; resid.=  4.91682430459984E-12
(PID.TID 0000.0001)  cg2d: iter=   122 ; resid.=  3.66932352454462E-12
(PID.TID 0000.0001)  cg2d: iter=   123 ; resid.=  2.61727365415516E-12
(PID.TID 0000.0001)  cg2d: iter=   124 ; resid.=  1.83515293508803E-12
(PID.TID 0000.0001)  cg2d: iter=   125 ; resid.=  1.38793993227920E-12
(PID.TID 0000.0001)  cg2d: iter=   126 ; resid.=  1.02313454928720E-12
(PID.TID 0000.0001)  cg2d: iter=   127 ; resid.=  7.22502676323283E-13
(PID.TID 0000.0001)  cg2d: iter=   128 ; resid.=  5.45441839746109E-13
(PID.TID 0000.0001)  cg2d: iter=   129 ; resid.=  4.29821288247290E-13
(PID.TID 0000.0001)  cg2d: iter=   130 ; resid.=  3.26266516916969E-13
(PID.TID 0000.0001)  cg2d: iter=   131 ; resid.=  2.48142930614561E-13
(PID.TID 0000.0001)  cg2d: iter=   132 ; resid.=  1.88054366281774E-13
(PID.TID 0000.0001)  cg2d: iter=   133 ; resid.=  1.51708908904020E-13
(PID.TID 0000.0001)  cg2d: iter=   134 ; resid.=  1.20206962021958E-13
(PID.TID 0000.0001)  cg2d: iter=   135 ; resid.=  8.94742431775063E-14
DEBUG_STATS_RL:    cg2d_x (SOLVE_FOR_PRESSURE)  min= -1.63313800245080E+01
DEBUG_STATS_RL:    cg2d_x (SOLVE_FOR_PRESSURE)  max=  8.55336481660443E+00
DEBUG_STATS_RL:    cg2d_x (SOLVE_FOR_PRESSURE) mean= -1.55997757467230E+00
DEBUG_STATS_RL:    cg2d_x (SOLVE_FOR_PRESSURE) S.D.=  6.09419177113224E+00
(PID.TID 0000.0001)      cg2d_init_res =   4.67556215945145E-01
(PID.TID 0000.0001)      cg2d_iters(min,last) =      -1     135
(PID.TID 0000.0001)      cg2d_last_res =   8.94742431775063E-14
(PID.TID 0000.0001) // =======================================================
(PID.TID 0000.0001) // Begin MONITOR dynamic field statistics
(PID.TID 0000.0001) // =======================================================
(PID.TID 0000.0001) %MON time_tsnumber                =                    23
(PID.TID 0000.0001) %MON time_secondsf                =   1.9872000000000E+06
(PID.TID 0000.0001) %MON dynstat_eta_max              =   8.7190263166201E-01
(PID.TID 0000.0001) %MON dynstat_eta_min              =  -1.6647686059641E+00
(PID.TID 0000.0001) %MON dynstat_eta_mean             =  -1.6757667023884E-03
(PID.TID 0000.0001) %MON dynstat_eta_sd               =   5.3804008918404E-01
(PID.TID 0000.0001) %MON dynstat_eta_del2             =   1.9240039035489E-03
(PID.TID 0000.0001) %MON dynstat_uvel_max             =   1.3510628741278E-01
(PID.TID 0000.0001) %MON dynstat_uvel_min             =  -1.5347890556229E-01
(PID.TID 0000.0001) %MON dynstat_uvel_mean            =  -1.4767148665396E-04
(PID.TID 0000.0001) %MON dynstat_uvel_sd              =   1.3553194490461E-02
(PID.TID 0000.0001) %MON dynstat_uvel_del2            =   8.6746716259443E-05
(PID.TID 0000.0001) %MON dynstat_vvel_max             =   1.4791936507742E-01
(PID.TID 0000.0001) %MON dynstat_vvel_min             =  -1.3059164721962E-01
(PID.TID 0000.0001) %MON dynstat_vvel_mean            =   3.0976404925828E-04
(PID.TID 0000.0001) %MON dynstat_vvel_sd              =   1.0286906767941E-02
(PID.TID 0000.0001) %MON dynstat_vvel_del2            =   8.8392164457275E-05
(PID.TID 0000.0001) %MON dynstat_wvel_max             =   1.2087262945901E-04
(PID.TID 0000.0001) %MON dynstat_wvel_min             =  -1.3687213626009E-04
(PID.TID 0000.0001) %MON dynstat_wvel_mean            =   9.3903762284125E-23
(PID.TID 0000.0001) %MON dynstat_wvel_sd              =   1.7612258995053E-05
(PID.TID 0000.0001) %MON dynstat_wvel_del2            =   1.9333464016106E-07
(PID.TID 0000.0001) %MON dynstat_theta_max            =   2.9878785271995E+01
(PID.TID 0000.0001) %MON dynstat_theta_min            =  -2.0125663586886E+00
(PID.TID 0000.0001) %MON dynstat_theta_mean           =   3.6304932149234E+00
(PID.TID 0000.0001) %MON dynstat_theta_sd             =   4.4162068059684E+00
(PID.TID 0000.0001) %MON dynstat_theta_del2           =   4.8470590927408E-03
(PID.TID 0000.0001) %MON dynstat_salt_max             =   3.7454290746706E+01
(PID.TID 0000.0001) %MON dynstat_salt_min             =   2.9799599825511E+01
(PID.TID 0000.0001) %MON dynstat_salt_mean            =   3.4727961699324E+01
(PID.TID 0000.0001) %MON dynstat_salt_sd              =   2.9620910800015E-01
(PID.TID 0000.0001) %MON dynstat_salt_del2            =   1.0082110243397E-03
(PID.TID 0000.0001) %MON dynstat_sst_max              =   2.9878785271995E+01
(PID.TID 0000.0001) %MON dynstat_sst_min              =  -2.0125663586886E+00
(PID.TID 0000.0001) %MON dynstat_sst_mean             =   1.8708813590303E+01
(PID.TID 0000.0001) %MON dynstat_sst_sd               =   9.0591655062214E+00
(PID.TID 0000.0001) %MON dynstat_sst_del2             =   2.6412302391020E-02
(PID.TID 0000.0001) %MON dynstat_sss_max              =   3.7440578130723E+01
(PID.TID 0000.0001) %MON dynstat_sss_min              =   2.9799599825511E+01
(PID.TID 0000.0001) %MON dynstat_sss_mean             =   3.4860984992833E+01
(PID.TID 0000.0001) %MON dynstat_sss_sd               =   9.7319875948787E-01
(PID.TID 0000.0001) %MON dynstat_sss_del2             =   7.9621429480568E-03
(PID.TID 0000.0001) %MON forcing_qnet_max             =   4.1838000996908E+02
(PID.TID 0000.0001) %MON forcing_qnet_min             =  -1.7834291178385E+02
(PID.TID 0000.0001) %MON forcing_qnet_mean            =  -1.5918161829221E+01
(PID.TID 0000.0001) %MON forcing_qnet_sd              =   1.0239971019621E+02
(PID.TID 0000.0001) %MON forcing_qnet_del2            =   9.9741913177861E-01
(PID.TID 0000.0001) %MON forcing_qsw_max              =   0.0000000000000E+00
(PID.TID 0000.0001) %MON forcing_qsw_min              =   0.0000000000000E+00
(PID.TID 0000.0001) %MON forcing_qsw_mean             =   0.0000000000000E+00
(PID.TID 0000.0001) %MON forcing_qsw_sd               =   0.0000000000000E+00
(PID.TID 0000.0001) %MON forcing_qsw_del2             =   0.0000000000000E+00
(PID.TID 0000.0001) %MON forcing_empmr_max            =   7.9975610844940E-05
(PID.TID 0000.0001) %MON forcing_empmr_min            =  -7.6713466038806E-05
(PID.TID 0000.0001) %MON forcing_empmr_mean           =   9.2771384293034E-07
(PID.TID 0000.0001) %MON forcing_empmr_sd             =   2.8463942811171E-05
(PID.TID 0000.0001) %MON forcing_empmr_del2           =   3.6008973554056E-07
(PID.TID 0000.0001) %MON forcing_fu_max               =   2.7740635275841E-01
(PID.TID 0000.0001) %MON forcing_fu_min               =  -1.7755410373211E-01
(PID.TID 0000.0001) %MON forcing_fu_mean              =   1.6381836660849E-02
(PID.TID 0000.0001) %MON forcing_fu_sd                =   9.0119528995688E-02
(PID.TID 0000.0001) %MON forcing_fu_del2              =   6.8212946826367E-04
(PID.TID 0000.0001) %MON forcing_fv_max               =   2.1066219160954E-01
(PID.TID 0000.0001) %MON forcing_fv_min               =  -1.7119780182838E-01
(PID.TID 0000.0001) %MON forcing_fv_mean              =  -5.7157240865113E-03
(PID.TID 0000.0001) %MON forcing_fv_sd                =   4.6290555441337E-02
(PID.TID 0000.0001) %MON forcing_fv_del2              =   4.6994343397308E-04
(PID.TID 0000.0001) %MON trAdv_CFL_u_max              =   3.7442577214395E-02
(PID.TID 0000.0001) %MON trAdv_CFL_v_max              =   3.0003944109289E-02
(PID.TID 0000.0001) %MON trAdv_CFL_w_max              =   4.8949127424159E-02
(PID.TID 0000.0001) %MON advcfl_uvel_max              =   3.5321493065771E-02
(PID.TID 0000.0001) %MON advcfl_vvel_max              =   2.8738360293143E-02
(PID.TID 0000.0001) %MON advcfl_wvel_max              =   4.0937771249197E-02
(PID.TID 0000.0001) %MON advcfl_W_hf_max              =   4.9565929878805E-02
(PID.TID 0000.0001) %MON pe_b_mean                    =   3.7043727864667E-04
(PID.TID 0000.0001) %MON ke_max                       =   1.2707166257928E-02
(PID.TID 0000.0001) %MON ke_mean                      =   1.3101315370913E-04
(PID.TID 0000.0001) %MON ke_vol                       =   1.3226782436723E+18
(PID.TID 0000.0001) %MON vort_r_min                   =  -2.6409413595912E-07
(PID.TID 0000.0001) %MON vort_r_max                   =   4.4385702457502E-07
(PID.TID 0000.0001) %MON vort_a_mean                  =  -2.5274806827513E-05
(PID.TID 0000.0001) %MON vort_a_sd                    =   7.3604291211934E-05
(PID.TID 0000.0001) %MON vort_p_mean                  =  -3.1845655081364E-05
(PID.TID 0000.0001) %MON vort_p_sd                    =   1.3162516393793E-04
(PID.TID 0000.0001) %MON surfExpan_theta_mean         =  -2.0181082547872E-07
(PID.TID 0000.0001) %MON surfExpan_salt_mean          =   1.0474480551950E-07
(PID.TID 0000.0001) // =======================================================
(PID.TID 0000.0001) // End MONITOR dynamic field statistics
(PID.TID 0000.0001) // =======================================================
 EXTERNAL_FIELDS_LOAD,        23 : iP,iLd,i0,i1=    1    2    1    2 ; Wght=  0.7333333333  0.2666666667
 EXTERNAL_FIELDS_LOAD: (fu0,1),fu,fv= -3.5633E-02 -1.4435E-02 -2.9980E-02 -4.6691E-02
 EXTERNAL_FIELDS_LOAD: SST,SSS,Q,E-P=  5.6102E-01  3.4636E+01  2.5903E+02  1.0767E-05
DEBUG_STATS_RL:          Uvel (THERMODYNAMICS)  min= -1.53478905562291E-01
DEBUG_STATS_RL:          Uvel (THERMODYNAMICS)  max=  1.35106287412777E-01
DEBUG_STATS_RL:          Uvel (THERMODYNAMICS) mean=  2.47721423792182E-03
DEBUG_STATS_RL:          Uvel (THERMODYNAMICS) S.D.=  2.01921030326369E-02
DEBUG_STATS_RL:          Vvel (THERMODYNAMICS)  min= -1.30591647219621E-01
DEBUG_STATS_RL:          Vvel (THERMODYNAMICS)  max=  1.47919365077418E-01
DEBUG_STATS_RL:          Vvel (THERMODYNAMICS) mean=  2.13659435929931E-03
DEBUG_STATS_RL:          Vvel (THERMODYNAMICS) S.D.=  1.67142372465850E-02
DEBUG_STATS_RL:          Wvel (THERMODYNAMICS)  min= -1.36872136260086E-04
DEBUG_STATS_RL:          Wvel (THERMODYNAMICS)  max=  1.20872629459014E-04
DEBUG_STATS_RL:          Wvel (THERMODYNAMICS) mean=  4.29846467683411E-07
DEBUG_STATS_RL:          Wvel (THERMODYNAMICS) S.D.=  1.59756484327163E-05
DEBUG_STATS_RL:         Theta (THERMODYNAMICS)  min= -2.01185062653591E+00
DEBUG_STATS_RL:         Theta (THERMODYNAMICS)  max=  2.98900552290482E+01
DEBUG_STATS_RL:         Theta (THERMODYNAMICS) mean=  3.21875229523161E+00
DEBUG_STATS_RL:         Theta (THERMODYNAMICS) S.D.=  5.85773982207827E+00
DEBUG_STATS_RL:          Salt (THERMODYNAMICS)  min=  9.99999999999999E-03
DEBUG_STATS_RL:          Salt (THERMODYNAMICS)  max=  3.74552947745611E+01
DEBUG_STATS_RL:          Salt (THERMODYNAMICS) mean=  1.88551037621711E+01
DEBUG_STATS_RL:          Salt (THERMODYNAMICS) S.D.=  1.73005928837751E+01
DEBUG_STATS_RL:         GtNm1 (THERMODYNAMICS)  min= -3.51742837473315E-06
DEBUG_STATS_RL:         GtNm1 (THERMODYNAMICS)  max=  2.59894501837721E-06
DEBUG_STATS_RL:         GtNm1 (THERMODYNAMICS) mean= -1.09989716600987E-09
DEBUG_STATS_RL:         GtNm1 (THERMODYNAMICS) S.D.=  2.36006146905013E-07
DEBUG_STATS_RL:         GsNm1 (THERMODYNAMICS)  min= -4.98832132802743E-07
DEBUG_STATS_RL:         GsNm1 (THERMODYNAMICS)  max=  4.67664116482590E-07
DEBUG_STATS_RL:         GsNm1 (THERMODYNAMICS) mean= -5.66778431172853E-10
DEBUG_STATS_RL:         GsNm1 (THERMODYNAMICS) S.D.=  2.13801435071493E-08
DEBUG_STATS_RL:                EtaN (DYNAMICS)  min= -1.66476860596410E+00
DEBUG_STATS_RL:                EtaN (DYNAMICS)  max=  8.71902631662007E-01
DEBUG_STATS_RL:                EtaN (DYNAMICS) mean= -1.59019120761703E-01
DEBUG_STATS_RL:                EtaN (DYNAMICS) S.D.=  6.21222402765773E-01
DEBUG_STATS_RL:                Uvel (DYNAMICS)  min= -1.53478905562291E-01
DEBUG_STATS_RL:                Uvel (DYNAMICS)  max=  1.35106287412777E-01
DEBUG_STATS_RL:                Uvel (DYNAMICS) mean=  2.47721423792182E-03
DEBUG_STATS_RL:                Uvel (DYNAMICS) S.D.=  2.01921030326369E-02
DEBUG_STATS_RL:                Vvel (DYNAMICS)  min= -1.30591647219621E-01
DEBUG_STATS_RL:                Vvel (DYNAMICS)  max=  1.47919365077418E-01
DEBUG_STATS_RL:                Vvel (DYNAMICS) mean=  2.13659435929931E-03
DEBUG_STATS_RL:                Vvel (DYNAMICS) S.D.=  1.67142372465850E-02
DEBUG_STATS_RL:                Wvel (DYNAMICS)  min= -1.36872136260086E-04
DEBUG_STATS_RL:                Wvel (DYNAMICS)  max=  1.20872629459014E-04
DEBUG_STATS_RL:                Wvel (DYNAMICS) mean=  4.29846467683411E-07
DEBUG_STATS_RL:                Wvel (DYNAMICS) S.D.=  1.59756484327163E-05
DEBUG_STATS_RL:               Theta (DYNAMICS)  min= -2.01185062653591E+00
DEBUG_STATS_RL:               Theta (DYNAMICS)  max=  2.98900552290482E+01
DEBUG_STATS_RL:               Theta (DYNAMICS) mean=  3.21875229523161E+00
DEBUG_STATS_RL:               Theta (DYNAMICS) S.D.=  5.85773982207827E+00
DEBUG_STATS_RL:                Salt (DYNAMICS)  min=  9.99999999999999E-03
DEBUG_STATS_RL:                Salt (DYNAMICS)  max=  3.74552947745611E+01
DEBUG_STATS_RL:                Salt (DYNAMICS) mean=  1.88551037621711E+01
DEBUG_STATS_RL:                Salt (DYNAMICS) S.D.=  1.73005928837751E+01
DEBUG_STATS_RL:                  Gu (DYNAMICS)  min= -1.59483951000500E-01
DEBUG_STATS_RL:                  Gu (DYNAMICS)  max=  1.34591119396783E-01
DEBUG_STATS_RL:                  Gu (DYNAMICS) mean=  2.35249312941409E-03
DEBUG_STATS_RL:                  Gu (DYNAMICS) S.D.=  2.00843096778108E-02
DEBUG_STATS_RL:                  Gv (DYNAMICS)  min= -1.43915438987988E-01
DEBUG_STATS_RL:                  Gv (DYNAMICS)  max=  1.62962044725670E-01
DEBUG_STATS_RL:                  Gv (DYNAMICS) mean=  4.14616092000342E-03
DEBUG_STATS_RL:                  Gv (DYNAMICS) S.D.=  1.83163101157887E-02
DEBUG_STATS_RL:               GuNm1 (DYNAMICS)  min= -7.25613055108078E-06
DEBUG_STATS_RL:               GuNm1 (DYNAMICS)  max=  7.94082640551084E-06
DEBUG_STATS_RL:               GuNm1 (DYNAMICS) mean= -9.99518442323159E-09
DEBUG_STATS_RL:               GuNm1 (DYNAMICS) S.D.=  1.17601414057113E-06
DEBUG_STATS_RL:               GvNm1 (DYNAMICS)  min= -9.93048081246647E-06
DEBUG_STATS_RL:               GvNm1 (DYNAMICS)  max=  1.70725085688634E-05
DEBUG_STATS_RL:               GvNm1 (DYNAMICS) mean=  7.71763847468981E-07
DEBUG_STATS_RL:               GvNm1 (DYNAMICS) S.D.=  2.62046016531672E-06
DEBUG_STATS_RL:               GtNm1 (DYNAMICS)  min= -3.51742837473315E-06
DEBUG_STATS_RL:               GtNm1 (DYNAMICS)  max=  2.59894501837721E-06
DEBUG_STATS_RL:               GtNm1 (DYNAMICS) mean= -1.09989716600987E-09
DEBUG_STATS_RL:               GtNm1 (DYNAMICS) S.D.=  2.36006146905013E-07
DEBUG_STATS_RL:               GsNm1 (DYNAMICS)  min= -4.98832132802743E-07
DEBUG_STATS_RL:               GsNm1 (DYNAMICS)  max=  4.67664116482590E-07
DEBUG_STATS_RL:               GsNm1 (DYNAMICS) mean= -5.66778431172853E-10
DEBUG_STATS_RL:               GsNm1 (DYNAMICS) S.D.=  2.13801435071493E-08
DEBUG_STATS_RL:    cg2d_b (SOLVE_FOR_PRESSURE)  min= -2.33231200477787E+04
DEBUG_STATS_RL:    cg2d_b (SOLVE_FOR_PRESSURE)  max=  1.72565073378767E+04
DEBUG_STATS_RL:    cg2d_b (SOLVE_FOR_PRESSURE) mean=  1.68037945959965E+00
DEBUG_STATS_RL:    cg2d_b (SOLVE_FOR_PRESSURE) S.D.=  3.64717327493028E+03
 cg2d: Sum(rhs),rhsMax =   1.66790654123565E-01  1.53192497065940E+00
(PID.TID 0000.0001)  cg2d: iter=     1 ; resid.=  1.79960846671075E-01
(PID.TID 0000.0001)  cg2d: iter=     2 ; resid.=  1.71254216937809E-01
(PID.TID 0000.0001)  cg2d: iter=     3 ; resid.=  1.70557534011523E-01
(PID.TID 0000.0001)  cg2d: iter=     4 ; resid.=  1.57043686857271E-01
(PID.TID 0000.0001)  cg2d: iter=     5 ; resid.=  1.32362103771440E-01
(PID.TID 0000.0001)  cg2d: iter=     6 ; resid.=  9.74506186377445E-02
(PID.TID 0000.0001)  cg2d: iter=     7 ; resid.=  8.45374023009312E-02
(PID.TID 0000.0001)  cg2d: iter=     8 ; resid.=  7.53626129285817E-02
(PID.TID 0000.0001)  cg2d: iter=     9 ; resid.=  5.96999461487562E-02
(PID.TID 0000.0001)  cg2d: iter=    10 ; resid.=  4.90190760213706E-02
(PID.TID 0000.0001)  cg2d: iter=    11 ; resid.=  4.57014514492368E-02
(PID.TID 0000.0001)  cg2d: iter=    12 ; resid.=  3.66269994981158E-02
(PID.TID 0000.0001)  cg2d: iter=    13 ; resid.=  2.86409795123842E-02
(PID.TID 0000.0001)  cg2d: iter=    14 ; resid.=  2.33614152703736E-02
(PID.TID 0000.0001)  cg2d: iter=    15 ; resid.=  1.83705857857468E-02
(PID.TID 0000.0001)  cg2d: iter=    16 ; resid.=  1.58881043665039E-02
(PID.TID 0000.0001)  cg2d: iter=    17 ; resid.=  1.56343383286662E-02
(PID.TID 0000.0001)  cg2d: iter=    18 ; resid.=  1.33876389275505E-02
(PID.TID 0000.0001)  cg2d: iter=    19 ; resid.=  1.07266846582295E-02
(PID.TID 0000.0001)  cg2d: iter=    20 ; resid.=  9.08452372977602E-03
(PID.TID 0000.0001)  cg2d: iter=    21 ; resid.=  7.58681724405364E-03
(PID.TID 0000.0001)  cg2d: iter=    22 ; resid.=  6.09433154795410E-03
(PID.TID 0000.0001)  cg2d: iter=    23 ; resid.=  5.08821053007347E-03
(PID.TID 0000.0001)  cg2d: iter=    24 ; resid.=  4.48931179045670E-03
(PID.TID 0000.0001)  cg2d: iter=    25 ; resid.=  3.54233164900572E-03
(PID.TID 0000.0001)  cg2d: iter=    26 ; resid.=  2.85424046186879E-03
(PID.TID 0000.0001)  cg2d: iter=    27 ; resid.=  2.64317199875226E-03
(PID.TID 0000.0001)  cg2d: iter=    28 ; resid.=  2.23387559778801E-03
(PID.TID 0000.0001)  cg2d: iter=    29 ; resid.=  1.77884871050360E-03
(PID.TID 0000.0001)  cg2d: iter=    30 ; resid.=  1.46778106634523E-03
(PID.TID 0000.0001)  cg2d: iter=    31 ; resid.=  1.27198739415519E-03
(PID.TID 0000.0001)  cg2d: iter=    32 ; resid.=  1.00697666237508E-03
(PID.TID 0000.0001)  cg2d: iter=    33 ; resid.=  8.11656333274567E-04
(PID.TID 0000.0001)  cg2d: iter=    34 ; resid.=  6.89433027524100E-04
(PID.TID 0000.0001)  cg2d: iter=    35 ; resid.=  5.78669970814345E-04
(PID.TID 0000.0001)  cg2d: iter=    36 ; resid.=  4.81891132342303E-04
(PID.TID 0000.0001)  cg2d: iter=    37 ; resid.=  4.24360071624150E-04
(PID.TID 0000.0001)  cg2d: iter=    38 ; resid.=  3.80193266413497E-04
(PID.TID 0000.0001)  cg2d: iter=    39 ; resid.=  3.32880403548265E-04
(PID.TID 0000.0001)  cg2d: iter=    40 ; resid.=  2.91026456039894E-04
(PID.TID 0000.0001)  cg2d: iter=    41 ; resid.=  2.32421760111003E-04
(PID.TID 0000.0001)  cg2d: iter=    42 ; resid.=  1.97468442121164E-04
(PID.TID 0000.0001)  cg2d: iter=    43 ; resid.=  1.71908255291817E-04
(PID.TID 0000.0001)  cg2d: iter=    44 ; resid.=  1.42429122125214E-04
(PID.TID 0000.0001)  cg2d: iter=    45 ; resid.=  1.07391727786252E-04
(PID.TID 0000.0001)  cg2d: iter=    46 ; resid.=  8.05415663082502E-05
(PID.TID 0000.0001)  cg2d: iter=    47 ; resid.=  6.52458457507799E-05
(PID.TID 0000.0001)  cg2d: iter=    48 ; resid.=  5.25120394129274E-05
(PID.TID 0000.0001)  cg2d: iter=    49 ; resid.=  4.11136345533704E-05
(PID.TID 0000.0001)  cg2d: iter=    50 ; resid.=  3.51296702843704E-05
(PID.TID 0000.0001)  cg2d: iter=    51 ; resid.=  2.98965107163106E-05
(PID.TID 0000.0001)  cg2d: iter=    52 ; resid.=  2.63074269074740E-05
(PID.TID 0000.0001)  cg2d: iter=    53 ; resid.=  2.41711051883446E-05
(PID.TID 0000.0001)  cg2d: iter=    54 ; resid.=  2.06033852196392E-05
(PID.TID 0000.0001)  cg2d: iter=    55 ; resid.=  1.61671436065066E-05
(PID.TID 0000.0001)  cg2d: iter=    56 ; resid.=  1.38149061217530E-05
(PID.TID 0000.0001)  cg2d: iter=    57 ; resid.=  1.13873651048635E-05
(PID.TID 0000.0001)  cg2d: iter=    58 ; resid.=  8.78746660377326E-06
(PID.TID 0000.0001)  cg2d: iter=    59 ; resid.=  7.36686055585636E-06
(PID.TID 0000.0001)  cg2d: iter=    60 ; resid.=  5.81767264447091E-06
(PID.TID 0000.0001)  cg2d: iter=    61 ; resid.=  4.57465191829209E-06
(PID.TID 0000.0001)  cg2d: iter=    62 ; resid.=  3.62963304242773E-06
(PID.TID 0000.0001)  cg2d: iter=    63 ; resid.=  3.20749562042565E-06
(PID.TID 0000.0001)  cg2d: iter=    64 ; resid.=  2.68887532212655E-06
(PID.TID 0000.0001)  cg2d: iter=    65 ; resid.=  2.13509645457459E-06
(PID.TID 0000.0001)  cg2d: iter=    66 ; resid.=  1.66162815423207E-06
(PID.TID 0000.0001)  cg2d: iter=    67 ; resid.=  1.39448590993265E-06
(PID.TID 0000.0001)  cg2d: iter=    68 ; resid.=  1.14139814309349E-06
(PID.TID 0000.0001)  cg2d: iter=    69 ; resid.=  9.01473989980937E-07
(PID.TID 0000.0001)  cg2d: iter=    70 ; resid.=  8.08006709611038E-07
(PID.TID 0000.0001)  cg2d: iter=    71 ; resid.=  6.73147416828898E-07
(PID.TID 0000.0001)  cg2d: iter=    72 ; resid.=  5.68238984014644E-07
(PID.TID 0000.0001)  cg2d: iter=    73 ; resid.=  5.18673705102156E-07
(PID.TID 0000.0001)  cg2d: iter=    74 ; resid.=  4.35556911754434E-07
(PID.TID 0000.0001)  cg2d: iter=    75 ; resid.=  3.48990846236742E-07
(PID.TID 0000.0001)  cg2d: iter=    76 ; resid.=  2.88058338992457E-07
(PID.TID 0000.0001)  cg2d: iter=    77 ; resid.=  2.53587560019435E-07
(PID.TID 0000.0001)  cg2d: iter=    78 ; resid.=  1.98328642522797E-07
(PID.TID 0000.0001)  cg2d: iter=    79 ; resid.=  1.70506848719672E-07
(PID.TID 0000.0001)  cg2d: iter=    80 ; resid.=  1.34872521732923E-07
(PID.TID 0000.0001)  cg2d: iter=    81 ; resid.=  9.94964954466100E-08
(PID.TID 0000.0001)  cg2d: iter=    82 ; resid.=  7.68112151603275E-08
(PID.TID 0000.0001)  cg2d: iter=    83 ; resid.=  5.71349277314113E-08
(PID.TID 0000.0001)  cg2d: iter=    84 ; resid.=  4.38531043159835E-08
(PID.TID 0000.0001)  cg2d: iter=    85 ; resid.=  3.21692003206018E-08
(PID.TID 0000.0001)  cg2d: iter=    86 ; resid.=  2.47455493449780E-08
(PID.TID 0000.0001)  cg2d: iter=    87 ; resid.=  2.07008290859745E-08
(PID.TID 0000.0001)  cg2d: iter=    88 ; resid.=  1.79309397770832E-08
(PID.TID 0000.0001)  cg2d: iter=    89 ; resid.=  1.49052369291825E-08
(PID.TID 0000.0001)  cg2d: iter=    90 ; resid.=  1.14815658703121E-08
(PID.TID 0000.0001)  cg2d: iter=    91 ; resid.=  8.90386327416916E-09
(PID.TID 0000.0001)  cg2d: iter=    92 ; resid.=  6.37482790309844E-09
(PID.TID 0000.0001)  cg2d: iter=    93 ; resid.=  3.95908466639014E-09
(PID.TID 0000.0001)  cg2d: iter=    94 ; resid.=  2.63640745348030E-09
(PID.TID 0000.0001)  cg2d: iter=    95 ; resid.=  1.93062046379448E-09
(PID.TID 0000.0001)  cg2d: iter=    96 ; resid.=  1.46040403828665E-09
(PID.TID 0000.0001)  cg2d: iter=    97 ; resid.=  1.08042080809191E-09
(PID.TID 0000.0001)  cg2d: iter=    98 ; resid.=  8.13261727703358E-10
(PID.TID 0000.0001)  cg2d: iter=    99 ; resid.=  6.11130532996576E-10
(PID.TID 0000.0001)  cg2d: iter=   100 ; resid.=  4.80615946174633E-10
(PID.TID 0000.0001)  cg2d: iter=   101 ; resid.=  3.75944229786624E-10
(PID.TID 0000.0001)  cg2d: iter=   102 ; resid.=  2.97687542094002E-10
(PID.TID 0000.0001)  cg2d: iter=   103 ; resid.=  2.38470100562858E-10
(PID.TID 0000.0001)  cg2d: iter=   104 ; resid.=  1.84520271114383E-10
(PID.TID 0000.0001)  cg2d: iter=   105 ; resid.=  1.35656108232772E-10
(PID.TID 0000.0001)  cg2d: iter=   106 ; resid.=  1.07616098448443E-10
(PID.TID 0000.0001)  cg2d: iter=   107 ; resid.=  8.69232162197232E-11
(PID.TID 0000.0001)  cg2d: iter=   108 ; resid.=  6.70943171971512E-11
(PID.TID 0000.0001)  cg2d: iter=   109 ; resid.=  5.30036162841522E-11
(PID.TID 0000.0001)  cg2d: iter=   110 ; resid.=  4.27078962726204E-11
(PID.TID 0000.0001)  cg2d: iter=   111 ; resid.=  3.53495000768219E-11
(PID.TID 0000.0001)  cg2d: iter=   112 ; resid.=  2.91813481404250E-11
(PID.TID 0000.0001)  cg2d: iter=   113 ; resid.=  2.39974104701520E-11
(PID.TID 0000.0001)  cg2d: iter=   114 ; resid.=  1.94617956961788E-11
(PID.TID 0000.0001)  cg2d: iter=   115 ; resid.=  1.53342153442102E-11
(PID.TID 0000.0001)  cg2d: iter=   116 ; resid.=  1.25063396177250E-11
(PID.TID 0000.0001)  cg2d: iter=   117 ; resid.=  1.10204930123108E-11
(PID.TID 0000.0001)  cg2d: iter=   118 ; resid.=  9.22089302511814E-12
(PID.TID 0000.0001)  cg2d: iter=   119 ; resid.=  7.41355704308297E-12
(PID.TID 0000.0001)  cg2d: iter=   120 ; resid.=  6.08692347816160E-12
(PID.TID 0000.0001)  cg2d: iter=   121 ; resid.=  4.79398852090312E-12
(PID.TID 0000.0001)  cg2d: iter=   122 ; resid.=  3.74206457421524E-12
(PID.TID 0000.0001)  cg2d: iter=   123 ; resid.=  2.74747529899566E-12
(PID.TID 0000.0001)  cg2d: iter=   124 ; resid.=  1.97732280276928E-12
(PID.TID 0000.0001)  cg2d: iter=   125 ; resid.=  1.52600255122650E-12
(PID.TID 0000.0001)  cg2d: iter=   126 ; resid.=  1.14142879189203E-12
(PID.TID 0000.0001)  cg2d: iter=   127 ; resid.=  8.09406982675363E-13
(PID.TID 0000.0001)  cg2d: iter=   128 ; resid.=  6.02887265041578E-13
(PID.TID 0000.0001)  cg2d: iter=   129 ; resid.=  4.58151550041952E-13
(PID.TID 0000.0001)  cg2d: iter=   130 ; resid.=  3.39093830227041E-13
(PID.TID 0000.0001)  cg2d: iter=   131 ; resid.=  2.56509258880079E-13
(PID.TID 0000.0001)  cg2d: iter=   132 ; resid.=  1.92274164002517E-13
(PID.TID 0000.0001)  cg2d: iter=   133 ; resid.=  1.56787375006436E-13
(PID.TID 0000.0001)  cg2d: iter=   134 ; resid.=  1.22186237326615E-13
(PID.TID 0000.0001)  cg2d: iter=   135 ; resid.=  9.07193313620400E-14
DEBUG_STATS_RL:    cg2d_x (SOLVE_FOR_PRESSURE)  min= -1.66069376935539E+01
DEBUG_STATS_RL:    cg2d_x (SOLVE_FOR_PRESSURE)  max=  8.30425986547201E+00
DEBUG_STATS_RL:    cg2d_x (SOLVE_FOR_PRESSURE) mean= -1.55070764277945E+00
DEBUG_STATS_RL:    cg2d_x (SOLVE_FOR_PRESSURE) S.D.=  6.10348144142813E+00
(PID.TID 0000.0001)      cg2d_init_res =   4.54152011029675E-01
(PID.TID 0000.0001)      cg2d_iters(min,last) =      -1     135
(PID.TID 0000.0001)      cg2d_last_res =   9.07193313620400E-14
(PID.TID 0000.0001) // =======================================================
(PID.TID 0000.0001) // Begin MONITOR dynamic field statistics
(PID.TID 0000.0001) // =======================================================
(PID.TID 0000.0001) %MON time_tsnumber                =                    24
(PID.TID 0000.0001) %MON time_secondsf                =   2.0736000000000E+06
(PID.TID 0000.0001) %MON dynstat_eta_max              =   8.4650967028256E-01
(PID.TID 0000.0001) %MON dynstat_eta_min              =  -1.6928580727373E+00
(PID.TID 0000.0001) %MON dynstat_eta_mean             =  -1.7532676059176E-03
(PID.TID 0000.0001) %MON dynstat_eta_sd               =   5.3688932100803E-01
(PID.TID 0000.0001) %MON dynstat_eta_del2             =   1.9604636858507E-03
(PID.TID 0000.0001) %MON dynstat_uvel_max             =   1.2662418530219E-01
(PID.TID 0000.0001) %MON dynstat_uvel_min             =  -1.5813589217949E-01
(PID.TID 0000.0001) %MON dynstat_uvel_mean            =   1.4453051277032E-04
(PID.TID 0000.0001) %MON dynstat_uvel_sd              =   1.3206468137898E-02
(PID.TID 0000.0001) %MON dynstat_uvel_del2            =   8.4273181050958E-05
(PID.TID 0000.0001) %MON dynstat_vvel_max             =   1.4335257550198E-01
(PID.TID 0000.0001) %MON dynstat_vvel_min             =  -1.3339170540401E-01
(PID.TID 0000.0001) %MON dynstat_vvel_mean            =   2.4626650768228E-04
(PID.TID 0000.0001) %MON dynstat_vvel_sd              =   1.0185250494516E-02
(PID.TID 0000.0001) %MON dynstat_vvel_del2            =   8.6132162418957E-05
(PID.TID 0000.0001) %MON dynstat_wvel_max             =   1.1944787015463E-04
(PID.TID 0000.0001) %MON dynstat_wvel_min             =  -1.3021359844860E-04
(PID.TID 0000.0001) %MON dynstat_wvel_mean            =  -6.5416104063098E-23
(PID.TID 0000.0001) %MON dynstat_wvel_sd              =   1.6728699377987E-05
(PID.TID 0000.0001) %MON dynstat_wvel_del2            =   1.8188519727955E-07
(PID.TID 0000.0001) %MON dynstat_theta_max            =   2.9890055229048E+01
(PID.TID 0000.0001) %MON dynstat_theta_min            =  -2.0118506265359E+00
(PID.TID 0000.0001) %MON dynstat_theta_mean           =   3.6305869447448E+00
(PID.TID 0000.0001) %MON dynstat_theta_sd             =   4.4163742524500E+00
(PID.TID 0000.0001) %MON dynstat_theta_del2           =   4.8464987702751E-03
(PID.TID 0000.0001) %MON dynstat_salt_max             =   3.7455294774561E+01
(PID.TID 0000.0001) %MON dynstat_salt_min             =   2.9806964020702E+01
(PID.TID 0000.0001) %MON dynstat_salt_mean            =   3.4727960519663E+01
(PID.TID 0000.0001) %MON dynstat_salt_sd              =   2.9620392514685E-01
(PID.TID 0000.0001) %MON dynstat_salt_del2            =   1.0066390500566E-03
(PID.TID 0000.0001) %MON dynstat_sst_max              =   2.9890055229048E+01
(PID.TID 0000.0001) %MON dynstat_sst_min              =  -2.0118506265359E+00
(PID.TID 0000.0001) %MON dynstat_sst_mean             =   1.8713004087045E+01
(PID.TID 0000.0001) %MON dynstat_sst_sd               =   9.0597048136293E+00
(PID.TID 0000.0001) %MON dynstat_sst_del2             =   2.6396208610482E-02
(PID.TID 0000.0001) %MON dynstat_sss_max              =   3.7440842480282E+01
(PID.TID 0000.0001) %MON dynstat_sss_min              =   2.9806964020702E+01
(PID.TID 0000.0001) %MON dynstat_sss_mean             =   3.4860323879043E+01
(PID.TID 0000.0001) %MON dynstat_sss_sd               =   9.7352032080519E-01
(PID.TID 0000.0001) %MON dynstat_sss_del2             =   7.9439036865350E-03
(PID.TID 0000.0001) %MON forcing_qnet_max             =   4.1506092325846E+02
(PID.TID 0000.0001) %MON forcing_qnet_min             =  -1.7810339253743E+02
(PID.TID 0000.0001) %MON forcing_qnet_mean            =  -1.5833252661817E+01
(PID.TID 0000.0001) %MON forcing_qnet_sd              =   1.0134792828630E+02
(PID.TID 0000.0001) %MON forcing_qnet_del2            =   9.9398501080315E-01
(PID.TID 0000.0001) %MON forcing_qsw_max              =   0.0000000000000E+00
(PID.TID 0000.0001) %MON forcing_qsw_min              =   0.0000000000000E+00
(PID.TID 0000.0001) %MON forcing_qsw_mean             =   0.0000000000000E+00
(PID.TID 0000.0001) %MON forcing_qsw_sd               =   0.0000000000000E+00
(PID.TID 0000.0001) %MON forcing_qsw_del2             =   0.0000000000000E+00
(PID.TID 0000.0001) %MON forcing_empmr_max            =   7.9661521112939E-05
(PID.TID 0000.0001) %MON forcing_empmr_min            =  -7.6793110300362E-05
(PID.TID 0000.0001) %MON forcing_empmr_mean           =   9.2839624019029E-07
(PID.TID 0000.0001) %MON forcing_empmr_sd             =   2.8422949327368E-05
(PID.TID 0000.0001) %MON forcing_empmr_del2           =   3.5924996282303E-07
(PID.TID 0000.0001) %MON forcing_fu_max               =   2.7721027731895E-01
(PID.TID 0000.0001) %MON forcing_fu_min               =  -1.7921402752399E-01
(PID.TID 0000.0001) %MON forcing_fu_mean              =   1.6436136876318E-02
(PID.TID 0000.0001) %MON forcing_fu_sd                =   9.0054319436731E-02
(PID.TID 0000.0001) %MON forcing_fu_del2              =   6.7829591148946E-04
(PID.TID 0000.0001) %MON forcing_fv_max               =   2.0745374461015E-01
(PID.TID 0000.0001) %MON forcing_fv_min               =  -1.7020650207996E-01
(PID.TID 0000.0001) %MON forcing_fv_mean              =  -5.7809849932265E-03
(PID.TID 0000.0001) %MON forcing_fv_sd                =   4.6066374404308E-02
(PID.TID 0000.0001) %MON forcing_fv_del2              =   4.6763919861826E-04
(PID.TID 0000.0001) %MON trAdv_CFL_u_max              =   3.5328667113636E-02
(PID.TID 0000.0001) %MON trAdv_CFL_v_max              =   2.9765487607953E-02
(PID.TID 0000.0001) %MON trAdv_CFL_w_max              =   4.5202122420988E-02
(PID.TID 0000.0001) %MON advcfl_uvel_max              =   3.3103975904878E-02
(PID.TID 0000.0001) %MON advcfl_vvel_max              =   2.7851106321134E-02
(PID.TID 0000.0001) %MON advcfl_wvel_max              =   4.1242413479854E-02
(PID.TID 0000.0001) %MON advcfl_W_hf_max              =   5.0080073511252E-02
(PID.TID 0000.0001) %MON pe_b_mean                    =   3.6885473507624E-04
(PID.TID 0000.0001) %MON ke_max                       =   1.2936408264314E-02
(PID.TID 0000.0001) %MON ke_mean                      =   1.2584731552284E-04
(PID.TID 0000.0001) %MON ke_vol                       =   1.3226782436723E+18
(PID.TID 0000.0001) %MON vort_r_min                   =  -2.8024203884588E-07
(PID.TID 0000.0001) %MON vort_r_max                   =   4.2601005136505E-07
(PID.TID 0000.0001) %MON vort_a_mean                  =  -2.5274806833198E-05
(PID.TID 0000.0001) %MON vort_a_sd                    =   7.3604329470878E-05
(PID.TID 0000.0001) %MON vort_p_mean                  =  -3.1845655088527E-05
(PID.TID 0000.0001) %MON vort_p_sd                    =   1.3162558314086E-04
(PID.TID 0000.0001) %MON surfExpan_theta_mean         =  -2.6078890200337E-07
(PID.TID 0000.0001) %MON surfExpan_salt_mean          =   8.1734705480326E-08
(PID.TID 0000.0001) // =======================================================
(PID.TID 0000.0001) // End MONITOR dynamic field statistics
(PID.TID 0000.0001) // =======================================================
 EXTERNAL_FIELDS_LOAD,        24 : iP,iLd,i0,i1=    1    2    1    2 ; Wght=  0.7000000000  0.3000000000
 EXTERNAL_FIELDS_LOAD: (fu0,1),fu,fv= -3.5633E-02 -1.4435E-02 -2.9273E-02 -4.5370E-02
 EXTERNAL_FIELDS_LOAD: SST,SSS,Q,E-P=  5.1134E-01  3.4627E+01  2.5818E+02  1.0659E-05
DEBUG_STATS_RL:          Uvel (THERMODYNAMICS)  min= -1.58135892179492E-01
DEBUG_STATS_RL:          Uvel (THERMODYNAMICS)  max=  1.26624185302186E-01
DEBUG_STATS_RL:          Uvel (THERMODYNAMICS) mean=  2.42027449246636E-03
DEBUG_STATS_RL:          Uvel (THERMODYNAMICS) S.D.=  1.96077479810458E-02
DEBUG_STATS_RL:          Vvel (THERMODYNAMICS)  min= -1.33391705404006E-01
DEBUG_STATS_RL:          Vvel (THERMODYNAMICS)  max=  1.43352575501978E-01
DEBUG_STATS_RL:          Vvel (THERMODYNAMICS) mean=  1.97775412984145E-03
DEBUG_STATS_RL:          Vvel (THERMODYNAMICS) S.D.=  1.64265394148908E-02
DEBUG_STATS_RL:          Wvel (THERMODYNAMICS)  min= -1.30213598448595E-04
DEBUG_STATS_RL:          Wvel (THERMODYNAMICS)  max=  1.19447870154631E-04
DEBUG_STATS_RL:          Wvel (THERMODYNAMICS) mean=  4.01811817055831E-07
DEBUG_STATS_RL:          Wvel (THERMODYNAMICS) S.D.=  1.51185350657047E-05
DEBUG_STATS_RL:         Theta (THERMODYNAMICS)  min= -2.01130103310015E+00
DEBUG_STATS_RL:         Theta (THERMODYNAMICS)  max=  2.99024969996566E+01
DEBUG_STATS_RL:         Theta (THERMODYNAMICS) mean=  3.21869626540917E+00
DEBUG_STATS_RL:         Theta (THERMODYNAMICS) S.D.=  5.85789001826451E+00
DEBUG_STATS_RL:          Salt (THERMODYNAMICS)  min=  9.99999999999999E-03
DEBUG_STATS_RL:          Salt (THERMODYNAMICS)  max=  3.74563321182922E+01
DEBUG_STATS_RL:          Salt (THERMODYNAMICS) mean=  1.88550785992931E+01
DEBUG_STATS_RL:          Salt (THERMODYNAMICS) S.D.=  1.73005699007338E+01
DEBUG_STATS_RL:         GtNm1 (THERMODYNAMICS)  min= -3.76991523788538E-06
DEBUG_STATS_RL:         GtNm1 (THERMODYNAMICS)  max=  2.62620570270525E-06
DEBUG_STATS_RL:         GtNm1 (THERMODYNAMICS) mean= -1.12067550225588E-09
DEBUG_STATS_RL:         GtNm1 (THERMODYNAMICS) S.D.=  2.34202119734337E-07
DEBUG_STATS_RL:         GsNm1 (THERMODYNAMICS)  min= -7.58485340615473E-07
DEBUG_STATS_RL:         GsNm1 (THERMODYNAMICS)  max=  6.51967124029464E-07
DEBUG_STATS_RL:         GsNm1 (THERMODYNAMICS) mean= -6.27561951023672E-10
DEBUG_STATS_RL:         GsNm1 (THERMODYNAMICS) S.D.=  2.17534512761354E-08
DEBUG_STATS_RL:                EtaN (DYNAMICS)  min= -1.69285807273731E+00
DEBUG_STATS_RL:                EtaN (DYNAMICS)  max=  8.46509670282556E-01
DEBUG_STATS_RL:                EtaN (DYNAMICS) mean= -1.58074173575886E-01
DEBUG_STATS_RL:                EtaN (DYNAMICS) S.D.=  6.22169362021214E-01
DEBUG_STATS_RL:                Uvel (DYNAMICS)  min= -1.58135892179492E-01
DEBUG_STATS_RL:                Uvel (DYNAMICS)  max=  1.26624185302186E-01
DEBUG_STATS_RL:                Uvel (DYNAMICS) mean=  2.42027449246636E-03
DEBUG_STATS_RL:                Uvel (DYNAMICS) S.D.=  1.96077479810458E-02
DEBUG_STATS_RL:                Vvel (DYNAMICS)  min= -1.33391705404006E-01
DEBUG_STATS_RL:                Vvel (DYNAMICS)  max=  1.43352575501978E-01
DEBUG_STATS_RL:                Vvel (DYNAMICS) mean=  1.97775412984145E-03
DEBUG_STATS_RL:                Vvel (DYNAMICS) S.D.=  1.64265394148908E-02
DEBUG_STATS_RL:                Wvel (DYNAMICS)  min= -1.30213598448595E-04
DEBUG_STATS_RL:                Wvel (DYNAMICS)  max=  1.19447870154631E-04
DEBUG_STATS_RL:                Wvel (DYNAMICS) mean=  4.01811817055831E-07
DEBUG_STATS_RL:                Wvel (DYNAMICS) S.D.=  1.51185350657047E-05
DEBUG_STATS_RL:               Theta (DYNAMICS)  min= -2.01130103310015E+00
DEBUG_STATS_RL:               Theta (DYNAMICS)  max=  2.99024969996566E+01
DEBUG_STATS_RL:               Theta (DYNAMICS) mean=  3.21869626540917E+00
DEBUG_STATS_RL:               Theta (DYNAMICS) S.D.=  5.85789001826451E+00
DEBUG_STATS_RL:                Salt (DYNAMICS)  min=  9.99999999999999E-03
DEBUG_STATS_RL:                Salt (DYNAMICS)  max=  3.74563321182922E+01
DEBUG_STATS_RL:                Salt (DYNAMICS) mean=  1.88550785992931E+01
DEBUG_STATS_RL:                Salt (DYNAMICS) S.D.=  1.73005699007338E+01
DEBUG_STATS_RL:                  Gu (DYNAMICS)  min= -1.63613955349989E-01
DEBUG_STATS_RL:                  Gu (DYNAMICS)  max=  1.25157514041609E-01
DEBUG_STATS_RL:                  Gu (DYNAMICS) mean=  2.35318793434065E-03
DEBUG_STATS_RL:                  Gu (DYNAMICS) S.D.=  1.96502769162773E-02
DEBUG_STATS_RL:                  Gv (DYNAMICS)  min= -1.44849832919032E-01
DEBUG_STATS_RL:                  Gv (DYNAMICS)  max=  1.55552349156197E-01
DEBUG_STATS_RL:                  Gv (DYNAMICS) mean=  3.98730881477978E-03
DEBUG_STATS_RL:                  Gv (DYNAMICS) S.D.=  1.78572703167152E-02
DEBUG_STATS_RL:               GuNm1 (DYNAMICS)  min= -7.36001293299519E-06
DEBUG_STATS_RL:               GuNm1 (DYNAMICS)  max=  7.93065675905967E-06
DEBUG_STATS_RL:               GuNm1 (DYNAMICS) mean= -1.03369749860551E-08
DEBUG_STATS_RL:               GuNm1 (DYNAMICS) S.D.=  1.18412452416935E-06
DEBUG_STATS_RL:               GvNm1 (DYNAMICS)  min= -1.01452155929423E-05
DEBUG_STATS_RL:               GvNm1 (DYNAMICS)  max=  1.70287263329873E-05
DEBUG_STATS_RL:               GvNm1 (DYNAMICS) mean=  7.71074610322899E-07
DEBUG_STATS_RL:               GvNm1 (DYNAMICS) S.D.=  2.62984439118573E-06
DEBUG_STATS_RL:               GtNm1 (DYNAMICS)  min= -3.76991523788538E-06
DEBUG_STATS_RL:               GtNm1 (DYNAMICS)  max=  2.62620570270525E-06
DEBUG_STATS_RL:               GtNm1 (DYNAMICS) mean= -1.12067550225588E-09
DEBUG_STATS_RL:               GtNm1 (DYNAMICS) S.D.=  2.34202119734337E-07
DEBUG_STATS_RL:               GsNm1 (DYNAMICS)  min= -7.58485340615473E-07
DEBUG_STATS_RL:               GsNm1 (DYNAMICS)  max=  6.51967124029464E-07
DEBUG_STATS_RL:               GsNm1 (DYNAMICS) mean= -6.27561951023672E-10
DEBUG_STATS_RL:               GsNm1 (DYNAMICS) S.D.=  2.17534512761354E-08
DEBUG_STATS_RL:    cg2d_b (SOLVE_FOR_PRESSURE)  min= -2.33935241596523E+04
DEBUG_STATS_RL:    cg2d_b (SOLVE_FOR_PRESSURE)  max=  1.76616393931511E+04
DEBUG_STATS_RL:    cg2d_b (SOLVE_FOR_PRESSURE) mean=  1.75471303499377E+00
DEBUG_STATS_RL:    cg2d_b (SOLVE_FOR_PRESSURE) S.D.=  3.70020266893182E+03
 cg2d: Sum(rhs),rhsMax =   1.73644665433392E-01  1.53654930122904E+00
(PID.TID 0000.0001)  cg2d: iter=     1 ; resid.=  1.67389202052656E-01
(PID.TID 0000.0001)  cg2d: iter=     2 ; resid.=  1.52140467602749E-01
(PID.TID 0000.0001)  cg2d: iter=     3 ; resid.=  1.50038680422955E-01
(PID.TID 0000.0001)  cg2d: iter=     4 ; resid.=  1.35525410583080E-01
(PID.TID 0000.0001)  cg2d: iter=     5 ; resid.=  1.09592439602564E-01
(PID.TID 0000.0001)  cg2d: iter=     6 ; resid.=  8.06611349698482E-02
(PID.TID 0000.0001)  cg2d: iter=     7 ; resid.=  6.88714065241201E-02
(PID.TID 0000.0001)  cg2d: iter=     8 ; resid.=  6.36692486757763E-02
(PID.TID 0000.0001)  cg2d: iter=     9 ; resid.=  5.30005634777147E-02
(PID.TID 0000.0001)  cg2d: iter=    10 ; resid.=  4.39992633795748E-02
(PID.TID 0000.0001)  cg2d: iter=    11 ; resid.=  4.02507265640252E-02
(PID.TID 0000.0001)  cg2d: iter=    12 ; resid.=  3.20106606431692E-02
(PID.TID 0000.0001)  cg2d: iter=    13 ; resid.=  2.51675317917318E-02
(PID.TID 0000.0001)  cg2d: iter=    14 ; resid.=  2.03634459139895E-02
(PID.TID 0000.0001)  cg2d: iter=    15 ; resid.=  1.61650199677890E-02
(PID.TID 0000.0001)  cg2d: iter=    16 ; resid.=  1.37397384504676E-02
(PID.TID 0000.0001)  cg2d: iter=    17 ; resid.=  1.31192217270986E-02
(PID.TID 0000.0001)  cg2d: iter=    18 ; resid.=  1.13576585187642E-02
(PID.TID 0000.0001)  cg2d: iter=    19 ; resid.=  9.12227313651730E-03
(PID.TID 0000.0001)  cg2d: iter=    20 ; resid.=  7.60761161579096E-03
(PID.TID 0000.0001)  cg2d: iter=    21 ; resid.=  6.43074435724280E-03
(PID.TID 0000.0001)  cg2d: iter=    22 ; resid.=  5.24781915731995E-03
(PID.TID 0000.0001)  cg2d: iter=    23 ; resid.=  4.36010880739653E-03
(PID.TID 0000.0001)  cg2d: iter=    24 ; resid.=  3.77062402229577E-03
(PID.TID 0000.0001)  cg2d: iter=    25 ; resid.=  2.92572790641823E-03
(PID.TID 0000.0001)  cg2d: iter=    26 ; resid.=  2.31673690102776E-03
(PID.TID 0000.0001)  cg2d: iter=    27 ; resid.=  2.11326950256983E-03
(PID.TID 0000.0001)  cg2d: iter=    28 ; resid.=  1.80585240905459E-03
(PID.TID 0000.0001)  cg2d: iter=    29 ; resid.=  1.44628368666461E-03
(PID.TID 0000.0001)  cg2d: iter=    30 ; resid.=  1.18011855557590E-03
(PID.TID 0000.0001)  cg2d: iter=    31 ; resid.=  1.03722450211797E-03
(PID.TID 0000.0001)  cg2d: iter=    32 ; resid.=  8.42233482104151E-04
(PID.TID 0000.0001)  cg2d: iter=    33 ; resid.=  6.69068334318941E-04
(PID.TID 0000.0001)  cg2d: iter=    34 ; resid.=  5.58150642385848E-04
(PID.TID 0000.0001)  cg2d: iter=    35 ; resid.=  4.62375590001496E-04
(PID.TID 0000.0001)  cg2d: iter=    36 ; resid.=  3.81432111649846E-04
(PID.TID 0000.0001)  cg2d: iter=    37 ; resid.=  3.30634305464552E-04
(PID.TID 0000.0001)  cg2d: iter=    38 ; resid.=  2.92378309079230E-04
(PID.TID 0000.0001)  cg2d: iter=    39 ; resid.=  2.51099394834053E-04
(PID.TID 0000.0001)  cg2d: iter=    40 ; resid.=  2.20611258658734E-04
(PID.TID 0000.0001)  cg2d: iter=    41 ; resid.=  1.84728304971648E-04
(PID.TID 0000.0001)  cg2d: iter=    42 ; resid.=  1.61209318586957E-04
(PID.TID 0000.0001)  cg2d: iter=    43 ; resid.=  1.43331706092089E-04
(PID.TID 0000.0001)  cg2d: iter=    44 ; resid.=  1.22384890438348E-04
(PID.TID 0000.0001)  cg2d: iter=    45 ; resid.=  9.67681328314627E-05
(PID.TID 0000.0001)  cg2d: iter=    46 ; resid.=  7.29016198910767E-05
(PID.TID 0000.0001)  cg2d: iter=    47 ; resid.=  5.86205093642144E-05
(PID.TID 0000.0001)  cg2d: iter=    48 ; resid.=  4.72846839837419E-05
(PID.TID 0000.0001)  cg2d: iter=    49 ; resid.=  3.66092444191511E-05
(PID.TID 0000.0001)  cg2d: iter=    50 ; resid.=  2.99186747654808E-05
(PID.TID 0000.0001)  cg2d: iter=    51 ; resid.=  2.48137355327196E-05
(PID.TID 0000.0001)  cg2d: iter=    52 ; resid.=  2.15974480395023E-05
(PID.TID 0000.0001)  cg2d: iter=    53 ; resid.=  2.03046343388804E-05
(PID.TID 0000.0001)  cg2d: iter=    54 ; resid.=  1.78876435196949E-05
(PID.TID 0000.0001)  cg2d: iter=    55 ; resid.=  1.42157645016367E-05
(PID.TID 0000.0001)  cg2d: iter=    56 ; resid.=  1.20632065995933E-05
(PID.TID 0000.0001)  cg2d: iter=    57 ; resid.=  1.00055838353963E-05
(PID.TID 0000.0001)  cg2d: iter=    58 ; resid.=  7.90046298902521E-06
(PID.TID 0000.0001)  cg2d: iter=    59 ; resid.=  6.65161889107816E-06
(PID.TID 0000.0001)  cg2d: iter=    60 ; resid.=  5.25134146797564E-06
(PID.TID 0000.0001)  cg2d: iter=    61 ; resid.=  4.08835621685242E-06
(PID.TID 0000.0001)  cg2d: iter=    62 ; resid.=  3.22808038844934E-06
(PID.TID 0000.0001)  cg2d: iter=    63 ; resid.=  2.85683789843106E-06
(PID.TID 0000.0001)  cg2d: iter=    64 ; resid.=  2.42960109833835E-06
(PID.TID 0000.0001)  cg2d: iter=    65 ; resid.=  1.91232254601154E-06
(PID.TID 0000.0001)  cg2d: iter=    66 ; resid.=  1.45244297362420E-06
(PID.TID 0000.0001)  cg2d: iter=    67 ; resid.=  1.21443239971592E-06
(PID.TID 0000.0001)  cg2d: iter=    68 ; resid.=  1.02574876316351E-06
(PID.TID 0000.0001)  cg2d: iter=    69 ; resid.=  8.19820358890778E-07
(PID.TID 0000.0001)  cg2d: iter=    70 ; resid.=  7.29101225078843E-07
(PID.TID 0000.0001)  cg2d: iter=    71 ; resid.=  5.91289882733709E-07
(PID.TID 0000.0001)  cg2d: iter=    72 ; resid.=  4.82608984115096E-07
(PID.TID 0000.0001)  cg2d: iter=    73 ; resid.=  4.35340653715604E-07
(PID.TID 0000.0001)  cg2d: iter=    74 ; resid.=  3.64435854179399E-07
(PID.TID 0000.0001)  cg2d: iter=    75 ; resid.=  2.86334325266501E-07
(PID.TID 0000.0001)  cg2d: iter=    76 ; resid.=  2.39481664921988E-07
(PID.TID 0000.0001)  cg2d: iter=    77 ; resid.=  2.20597400344046E-07
(PID.TID 0000.0001)  cg2d: iter=    78 ; resid.=  1.76296679366052E-07
(PID.TID 0000.0001)  cg2d: iter=    79 ; resid.=  1.52493479701990E-07
(PID.TID 0000.0001)  cg2d: iter=    80 ; resid.=  1.21575052510688E-07
(PID.TID 0000.0001)  cg2d: iter=    81 ; resid.=  9.33169451561911E-08
(PID.TID 0000.0001)  cg2d: iter=    82 ; resid.=  7.29577965146750E-08
(PID.TID 0000.0001)  cg2d: iter=    83 ; resid.=  5.34108333178282E-08
(PID.TID 0000.0001)  cg2d: iter=    84 ; resid.=  4.03866543310826E-08
(PID.TID 0000.0001)  cg2d: iter=    85 ; resid.=  2.95129769143925E-08
(PID.TID 0000.0001)  cg2d: iter=    86 ; resid.=  2.24904093258582E-08
(PID.TID 0000.0001)  cg2d: iter=    87 ; resid.=  1.85326173487146E-08
(PID.TID 0000.0001)  cg2d: iter=    88 ; resid.=  1.62902334594601E-08
(PID.TID 0000.0001)  cg2d: iter=    89 ; resid.=  1.35745588582470E-08
(PID.TID 0000.0001)  cg2d: iter=    90 ; resid.=  1.05032680285386E-08
(PID.TID 0000.0001)  cg2d: iter=    91 ; resid.=  8.11674155846001E-09
(PID.TID 0000.0001)  cg2d: iter=    92 ; resid.=  5.84644207003714E-09
(PID.TID 0000.0001)  cg2d: iter=    93 ; resid.=  3.76845691274169E-09
(PID.TID 0000.0001)  cg2d: iter=    94 ; resid.=  2.58788389900517E-09
(PID.TID 0000.0001)  cg2d: iter=    95 ; resid.=  1.97141021411191E-09
(PID.TID 0000.0001)  cg2d: iter=    96 ; resid.=  1.52227186518440E-09
(PID.TID 0000.0001)  cg2d: iter=    97 ; resid.=  1.11726036230226E-09
(PID.TID 0000.0001)  cg2d: iter=    98 ; resid.=  8.23974985859287E-10
(PID.TID 0000.0001)  cg2d: iter=    99 ; resid.=  6.12095486256130E-10
(PID.TID 0000.0001)  cg2d: iter=   100 ; resid.=  4.76053843585032E-10
(PID.TID 0000.0001)  cg2d: iter=   101 ; resid.=  3.64878256098861E-10
(PID.TID 0000.0001)  cg2d: iter=   102 ; resid.=  2.84288139192935E-10
(PID.TID 0000.0001)  cg2d: iter=   103 ; resid.=  2.18233153548335E-10
(PID.TID 0000.0001)  cg2d: iter=   104 ; resid.=  1.61372932310420E-10
(PID.TID 0000.0001)  cg2d: iter=   105 ; resid.=  1.14573349929851E-10
(PID.TID 0000.0001)  cg2d: iter=   106 ; resid.=  8.81588269940784E-11
(PID.TID 0000.0001)  cg2d: iter=   107 ; resid.=  6.90414947220916E-11
(PID.TID 0000.0001)  cg2d: iter=   108 ; resid.=  5.26101808622056E-11
(PID.TID 0000.0001)  cg2d: iter=   109 ; resid.=  4.08800303082742E-11
(PID.TID 0000.0001)  cg2d: iter=   110 ; resid.=  3.16416377865204E-11
(PID.TID 0000.0001)  cg2d: iter=   111 ; resid.=  2.47862060145874E-11
(PID.TID 0000.0001)  cg2d: iter=   112 ; resid.=  1.94729402671555E-11
(PID.TID 0000.0001)  cg2d: iter=   113 ; resid.=  1.51695462160721E-11
(PID.TID 0000.0001)  cg2d: iter=   114 ; resid.=  1.14923842067446E-11
(PID.TID 0000.0001)  cg2d: iter=   115 ; resid.=  8.23495599252386E-12
(PID.TID 0000.0001)  cg2d: iter=   116 ; resid.=  5.97536972026442E-12
(PID.TID 0000.0001)  cg2d: iter=   117 ; resid.=  4.58076157782055E-12
(PID.TID 0000.0001)  cg2d: iter=   118 ; resid.=  3.53439106129021E-12
(PID.TID 0000.0001)  cg2d: iter=   119 ; resid.=  2.67891749339502E-12
(PID.TID 0000.0001)  cg2d: iter=   120 ; resid.=  2.22061908822915E-12
(PID.TID 0000.0001)  cg2d: iter=   121 ; resid.=  1.88601440030818E-12
(PID.TID 0000.0001)  cg2d: iter=   122 ; resid.=  1.62491291328141E-12
(PID.TID 0000.0001)  cg2d: iter=   123 ; resid.=  1.35556489264301E-12
(PID.TID 0000.0001)  cg2d: iter=   124 ; resid.=  1.12632252657082E-12
(PID.TID 0000.0001)  cg2d: iter=   125 ; resid.=  9.99084046360467E-13
(PID.TID 0000.0001)  cg2d: iter=   126 ; resid.=  8.50640847420852E-13
(PID.TID 0000.0001)  cg2d: iter=   127 ; resid.=  6.49596993320518E-13
(PID.TID 0000.0001)  cg2d: iter=   128 ; resid.=  5.00143656050473E-13
(PID.TID 0000.0001)  cg2d: iter=   129 ; resid.=  3.87901346155672E-13
(PID.TID 0000.0001)  cg2d: iter=   130 ; resid.=  2.94453388114734E-13
(PID.TID 0000.0001)  cg2d: iter=   131 ; resid.=  2.27231151353209E-13
(PID.TID 0000.0001)  cg2d: iter=   132 ; resid.=  1.68718106606360E-13
(PID.TID 0000.0001)  cg2d: iter=   133 ; resid.=  1.36780074599513E-13
(PID.TID 0000.0001)  cg2d: iter=   134 ; resid.=  1.06293620446454E-13
(PID.TID 0000.0001)  cg2d: iter=   135 ; resid.=  8.06281350296187E-14
DEBUG_STATS_RL:    cg2d_x (SOLVE_FOR_PRESSURE)  min= -1.67534096901430E+01
DEBUG_STATS_RL:    cg2d_x (SOLVE_FOR_PRESSURE)  max=  8.11020221113305E+00
DEBUG_STATS_RL:    cg2d_x (SOLVE_FOR_PRESSURE) mean= -1.54261733757516E+00
DEBUG_STATS_RL:    cg2d_x (SOLVE_FOR_PRESSURE) S.D.=  6.11879786735561E+00
(PID.TID 0000.0001)      cg2d_init_res =   4.43975082472952E-01
(PID.TID 0000.0001)      cg2d_iters(min,last) =      -1     135
(PID.TID 0000.0001)      cg2d_last_res =   8.06281350296187E-14
(PID.TID 0000.0001) // =======================================================
(PID.TID 0000.0001) // Begin MONITOR dynamic field statistics
(PID.TID 0000.0001) // =======================================================
(PID.TID 0000.0001) %MON time_tsnumber                =                    25
(PID.TID 0000.0001) %MON time_secondsf                =   2.1600000000000E+06
(PID.TID 0000.0001) %MON dynstat_eta_max              =   8.2672805414199E-01
(PID.TID 0000.0001) %MON dynstat_eta_min              =  -1.7077889592398E+00
(PID.TID 0000.0001) %MON dynstat_eta_mean             =  -1.8308254747829E-03
(PID.TID 0000.0001) %MON dynstat_eta_sd               =   5.3686346341963E-01
(PID.TID 0000.0001) %MON dynstat_eta_del2             =   1.9963508560674E-03
(PID.TID 0000.0001) %MON dynstat_uvel_max             =   1.2158957027203E-01
(PID.TID 0000.0001) %MON dynstat_uvel_min             =  -1.6226245160640E-01
(PID.TID 0000.0001) %MON dynstat_uvel_mean            =   4.3851694738225E-04
(PID.TID 0000.0001) %MON dynstat_uvel_sd              =   1.2957422486609E-02
(PID.TID 0000.0001) %MON dynstat_uvel_del2            =   8.2142164798770E-05
(PID.TID 0000.0001) %MON dynstat_vvel_max             =   1.3569139007711E-01
(PID.TID 0000.0001) %MON dynstat_vvel_min             =  -1.3432960049731E-01
(PID.TID 0000.0001) %MON dynstat_vvel_mean            =   1.8457707489390E-04
(PID.TID 0000.0001) %MON dynstat_vvel_sd              =   1.0004364840993E-02
(PID.TID 0000.0001) %MON dynstat_vvel_del2            =   8.3566257931233E-05
(PID.TID 0000.0001) %MON dynstat_wvel_max             =   1.1773442292401E-04
(PID.TID 0000.0001) %MON dynstat_wvel_min             =  -1.3146512435540E-04
(PID.TID 0000.0001) %MON dynstat_wvel_mean            =  -1.7831163849457E-22
(PID.TID 0000.0001) %MON dynstat_wvel_sd              =   1.5861876306148E-05
(PID.TID 0000.0001) %MON dynstat_wvel_del2            =   1.7209849579193E-07
(PID.TID 0000.0001) %MON dynstat_theta_max            =   2.9902496999657E+01
(PID.TID 0000.0001) %MON dynstat_theta_min            =  -2.0113010331002E+00
(PID.TID 0000.0001) %MON dynstat_theta_mean           =   3.6306809150580E+00
(PID.TID 0000.0001) %MON dynstat_theta_sd             =   4.4165479827518E+00
(PID.TID 0000.0001) %MON dynstat_theta_del2           =   4.8473849642517E-03
(PID.TID 0000.0001) %MON dynstat_salt_max             =   3.7456332118292E+01
(PID.TID 0000.0001) %MON dynstat_salt_min             =   2.9813515722794E+01
(PID.TID 0000.0001) %MON dynstat_salt_mean            =   3.4727959967443E+01
(PID.TID 0000.0001) %MON dynstat_salt_sd              =   2.9620075647168E-01
(PID.TID 0000.0001) %MON dynstat_salt_del2            =   1.0051665409999E-03
(PID.TID 0000.0001) %MON dynstat_sst_max              =   2.9902496999657E+01
(PID.TID 0000.0001) %MON dynstat_sst_min              =  -2.0113010331002E+00
(PID.TID 0000.0001) %MON dynstat_sst_mean             =   1.8717479429397E+01
(PID.TID 0000.0001) %MON dynstat_sst_sd               =   9.0598471452565E+00
(PID.TID 0000.0001) %MON dynstat_sst_del2             =   2.6404058572100E-02
(PID.TID 0000.0001) %MON dynstat_sss_max              =   3.7441108508681E+01
(PID.TID 0000.0001) %MON dynstat_sss_min              =   2.9813515722794E+01
(PID.TID 0000.0001) %MON dynstat_sss_mean             =   3.4859672317269E+01
(PID.TID 0000.0001) %MON dynstat_sss_sd               =   9.7383028907180E-01
(PID.TID 0000.0001) %MON dynstat_sss_del2             =   7.9262443762960E-03
(PID.TID 0000.0001) %MON forcing_qnet_max             =   4.1174183654785E+02
(PID.TID 0000.0001) %MON forcing_qnet_min             =  -1.7786387329102E+02
(PID.TID 0000.0001) %MON forcing_qnet_mean            =  -1.5748343494414E+01
(PID.TID 0000.0001) %MON forcing_qnet_sd              =   1.0030047515306E+02
(PID.TID 0000.0001) %MON forcing_qnet_del2            =   9.9066567498476E-01
(PID.TID 0000.0001) %MON forcing_qsw_max              =   0.0000000000000E+00
(PID.TID 0000.0001) %MON forcing_qsw_min              =   0.0000000000000E+00
(PID.TID 0000.0001) %MON forcing_qsw_mean             =   0.0000000000000E+00
(PID.TID 0000.0001) %MON forcing_qsw_sd               =   0.0000000000000E+00
(PID.TID 0000.0001) %MON forcing_qsw_del2             =   0.0000000000000E+00
(PID.TID 0000.0001) %MON forcing_empmr_max            =   7.9347431380938E-05
(PID.TID 0000.0001) %MON forcing_empmr_min            =  -7.6872754561919E-05
(PID.TID 0000.0001) %MON forcing_empmr_mean           =   9.2907863745025E-07
(PID.TID 0000.0001) %MON forcing_empmr_sd             =   2.8383735592419E-05
(PID.TID 0000.0001) %MON forcing_empmr_del2           =   3.5846896033345E-07
(PID.TID 0000.0001) %MON forcing_fu_max               =   2.7701420187950E-01
(PID.TID 0000.0001) %MON forcing_fu_min               =  -1.8087395131588E-01
(PID.TID 0000.0001) %MON forcing_fu_mean              =   1.6490437091787E-02
(PID.TID 0000.0001) %MON forcing_fu_sd                =   9.0006638203509E-02
(PID.TID 0000.0001) %MON forcing_fu_del2              =   6.7506455559060E-04
(PID.TID 0000.0001) %MON forcing_fv_max               =   2.0424529761076E-01
(PID.TID 0000.0001) %MON forcing_fv_min               =  -1.6921520233154E-01
(PID.TID 0000.0001) %MON forcing_fv_mean              =  -5.8462458999417E-03
(PID.TID 0000.0001) %MON forcing_fv_sd                =   4.5856746175698E-02
(PID.TID 0000.0001) %MON forcing_fv_del2              =   4.6584186697431E-04
(PID.TID 0000.0001) %MON trAdv_CFL_u_max              =   3.3110699559148E-02
(PID.TID 0000.0001) %MON trAdv_CFL_v_max              =   2.8846522613445E-02
(PID.TID 0000.0001) %MON trAdv_CFL_w_max              =   4.5405935983893E-02
(PID.TID 0000.0001) %MON advcfl_uvel_max              =   3.2490086389710E-02
(PID.TID 0000.0001) %MON advcfl_vvel_max              =   2.6362660863725E-02
(PID.TID 0000.0001) %MON advcfl_wvel_max              =   4.0805835891192E-02
(PID.TID 0000.0001) %MON advcfl_W_hf_max              =   4.9549943582161E-02
(PID.TID 0000.0001) %MON pe_b_mean                    =   3.6881956255239E-04
(PID.TID 0000.0001) %MON ke_max                       =   1.3122564313647E-02
(PID.TID 0000.0001) %MON ke_mean                      =   1.2131338950573E-04
(PID.TID 0000.0001) %MON ke_vol                       =   1.3226782436723E+18
(PID.TID 0000.0001) %MON vort_r_min                   =  -2.8961398893876E-07
(PID.TID 0000.0001) %MON vort_r_max                   =   4.0415689921734E-07
(PID.TID 0000.0001) %MON vort_a_mean                  =  -2.5274806893095E-05
(PID.TID 0000.0001) %MON vort_a_sd                    =   7.3604368318986E-05
(PID.TID 0000.0001) %MON vort_p_mean                  =  -3.1845655163996E-05
(PID.TID 0000.0001) %MON vort_p_sd                    =   1.3162593895779E-04
(PID.TID 0000.0001) %MON surfExpan_theta_mean         =  -2.6412845794794E-07
(PID.TID 0000.0001) %MON surfExpan_salt_mean          =   5.3107687466634E-08
(PID.TID 0000.0001) // =======================================================
(PID.TID 0000.0001) // End MONITOR dynamic field statistics
(PID.TID 0000.0001) // =======================================================
 EXTERNAL_FIELDS_LOAD,        25 : iP,iLd,i0,i1=    1    2    1    2 ; Wght=  0.6666666667  0.3333333333
 EXTERNAL_FIELDS_LOAD: (fu0,1),fu,fv= -3.5633E-02 -1.4435E-02 -2.8567E-02 -4.4050E-02
 EXTERNAL_FIELDS_LOAD: SST,SSS,Q,E-P=  4.6166E-01  3.4617E+01  2.5734E+02  1.0550E-05
DEBUG_STATS_RL:          Uvel (THERMODYNAMICS)  min= -1.62262451606404E-01
DEBUG_STATS_RL:          Uvel (THERMODYNAMICS)  max=  1.21589570272027E-01
DEBUG_STATS_RL:          Uvel (THERMODYNAMICS) mean=  2.39317158838398E-03
DEBUG_STATS_RL:          Uvel (THERMODYNAMICS) S.D.=  1.91684630111990E-02
DEBUG_STATS_RL:          Vvel (THERMODYNAMICS)  min= -1.34329600497312E-01
DEBUG_STATS_RL:          Vvel (THERMODYNAMICS)  max=  1.35691390077111E-01
DEBUG_STATS_RL:          Vvel (THERMODYNAMICS) mean=  1.77400035009451E-03
DEBUG_STATS_RL:          Vvel (THERMODYNAMICS) S.D.=  1.60000548095620E-02
DEBUG_STATS_RL:          Wvel (THERMODYNAMICS)  min= -1.31465124355402E-04
DEBUG_STATS_RL:          Wvel (THERMODYNAMICS)  max=  1.17734422924014E-04
DEBUG_STATS_RL:          Wvel (THERMODYNAMICS) mean=  3.55789065451776E-07
DEBUG_STATS_RL:          Wvel (THERMODYNAMICS) S.D.=  1.42752018098148E-05
DEBUG_STATS_RL:         Theta (THERMODYNAMICS)  min= -2.01074435321133E+00
DEBUG_STATS_RL:         Theta (THERMODYNAMICS)  max=  2.99160009707108E+01
DEBUG_STATS_RL:         Theta (THERMODYNAMICS) mean=  3.21866247263511E+00
DEBUG_STATS_RL:         Theta (THERMODYNAMICS) S.D.=  5.85802570876979E+00
DEBUG_STATS_RL:          Salt (THERMODYNAMICS)  min=  9.99999999999999E-03
DEBUG_STATS_RL:          Salt (THERMODYNAMICS)  max=  3.74573887785583E+01
DEBUG_STATS_RL:          Salt (THERMODYNAMICS) mean=  1.88550508018242E+01
DEBUG_STATS_RL:          Salt (THERMODYNAMICS) S.D.=  1.73005445529574E+01
DEBUG_STATS_RL:         GtNm1 (THERMODYNAMICS)  min= -3.47534372731653E-06
DEBUG_STATS_RL:         GtNm1 (THERMODYNAMICS)  max=  2.63710363680713E-06
DEBUG_STATS_RL:         GtNm1 (THERMODYNAMICS) mean= -7.19743454253796E-10
DEBUG_STATS_RL:         GtNm1 (THERMODYNAMICS) S.D.=  2.32523127033012E-07
DEBUG_STATS_RL:         GsNm1 (THERMODYNAMICS)  min= -6.68709521420904E-07
DEBUG_STATS_RL:         GsNm1 (THERMODYNAMICS)  max=  5.38839530545202E-07
DEBUG_STATS_RL:         GsNm1 (THERMODYNAMICS) mean= -6.57544454690988E-10
DEBUG_STATS_RL:         GsNm1 (THERMODYNAMICS) S.D.=  2.13886975845791E-08
DEBUG_STATS_RL:                EtaN (DYNAMICS)  min= -1.70778895923980E+00
DEBUG_STATS_RL:                EtaN (DYNAMICS)  max=  8.26728054141994E-01
DEBUG_STATS_RL:                EtaN (DYNAMICS) mean= -1.57249473758936E-01
DEBUG_STATS_RL:                EtaN (DYNAMICS) S.D.=  6.23730669455209E-01
DEBUG_STATS_RL:                Uvel (DYNAMICS)  min= -1.62262451606404E-01
DEBUG_STATS_RL:                Uvel (DYNAMICS)  max=  1.21589570272027E-01
DEBUG_STATS_RL:                Uvel (DYNAMICS) mean=  2.39317158838398E-03
DEBUG_STATS_RL:                Uvel (DYNAMICS) S.D.=  1.91684630111990E-02
DEBUG_STATS_RL:                Vvel (DYNAMICS)  min= -1.34329600497312E-01
DEBUG_STATS_RL:                Vvel (DYNAMICS)  max=  1.35691390077111E-01
DEBUG_STATS_RL:                Vvel (DYNAMICS) mean=  1.77400035009451E-03
DEBUG_STATS_RL:                Vvel (DYNAMICS) S.D.=  1.60000548095620E-02
DEBUG_STATS_RL:                Wvel (DYNAMICS)  min= -1.31465124355402E-04
DEBUG_STATS_RL:                Wvel (DYNAMICS)  max=  1.17734422924014E-04
DEBUG_STATS_RL:                Wvel (DYNAMICS) mean=  3.55789065451776E-07
DEBUG_STATS_RL:                Wvel (DYNAMICS) S.D.=  1.42752018098148E-05
DEBUG_STATS_RL:               Theta (DYNAMICS)  min= -2.01074435321133E+00
DEBUG_STATS_RL:               Theta (DYNAMICS)  max=  2.99160009707108E+01
DEBUG_STATS_RL:               Theta (DYNAMICS) mean=  3.21866247263511E+00
DEBUG_STATS_RL:               Theta (DYNAMICS) S.D.=  5.85802570876979E+00
DEBUG_STATS_RL:                Salt (DYNAMICS)  min=  9.99999999999999E-03
DEBUG_STATS_RL:                Salt (DYNAMICS)  max=  3.74573887785583E+01
DEBUG_STATS_RL:                Salt (DYNAMICS) mean=  1.88550508018242E+01
DEBUG_STATS_RL:                Salt (DYNAMICS) S.D.=  1.73005445529574E+01
DEBUG_STATS_RL:                  Gu (DYNAMICS)  min= -1.67187569630896E-01
DEBUG_STATS_RL:                  Gu (DYNAMICS)  max=  1.20828865449925E-01
DEBUG_STATS_RL:                  Gu (DYNAMICS) mean=  2.37271537647574E-03
DEBUG_STATS_RL:                  Gu (DYNAMICS) S.D.=  1.93606148016146E-02
DEBUG_STATS_RL:                  Gv (DYNAMICS)  min= -1.43937701675071E-01
DEBUG_STATS_RL:                  Gv (DYNAMICS)  max=  1.45401092569277E-01
DEBUG_STATS_RL:                  Gv (DYNAMICS) mean=  3.78677834691267E-03
DEBUG_STATS_RL:                  Gv (DYNAMICS) S.D.=  1.72734152752581E-02
DEBUG_STATS_RL:               GuNm1 (DYNAMICS)  min= -7.47256775727966E-06
DEBUG_STATS_RL:               GuNm1 (DYNAMICS)  max=  7.89739077897852E-06
DEBUG_STATS_RL:               GuNm1 (DYNAMICS) mean= -1.10106331726984E-08
DEBUG_STATS_RL:               GuNm1 (DYNAMICS) S.D.=  1.19067770806827E-06
DEBUG_STATS_RL:               GvNm1 (DYNAMICS)  min= -1.03380918128681E-05
DEBUG_STATS_RL:               GvNm1 (DYNAMICS)  max=  1.69598402959056E-05
DEBUG_STATS_RL:               GvNm1 (DYNAMICS) mean=  7.70135154660630E-07
DEBUG_STATS_RL:               GvNm1 (DYNAMICS) S.D.=  2.63821269084483E-06
DEBUG_STATS_RL:               GtNm1 (DYNAMICS)  min= -3.47534372731653E-06
DEBUG_STATS_RL:               GtNm1 (DYNAMICS)  max=  2.63710363680713E-06
DEBUG_STATS_RL:               GtNm1 (DYNAMICS) mean= -7.19743454253796E-10
DEBUG_STATS_RL:               GtNm1 (DYNAMICS) S.D.=  2.32523127033012E-07
DEBUG_STATS_RL:               GsNm1 (DYNAMICS)  min= -6.68709521420904E-07
DEBUG_STATS_RL:               GsNm1 (DYNAMICS)  max=  5.38839530545202E-07
DEBUG_STATS_RL:               GsNm1 (DYNAMICS) mean= -6.57544454690988E-10
DEBUG_STATS_RL:               GsNm1 (DYNAMICS) S.D.=  2.13886975845791E-08
DEBUG_STATS_RL:    cg2d_b (SOLVE_FOR_PRESSURE)  min= -2.32777861891042E+04
DEBUG_STATS_RL:    cg2d_b (SOLVE_FOR_PRESSURE)  max=  1.80228890128476E+04
DEBUG_STATS_RL:    cg2d_b (SOLVE_FOR_PRESSURE) mean=  1.82910120751902E+00
DEBUG_STATS_RL:    cg2d_b (SOLVE_FOR_PRESSURE) S.D.=  3.74438453927316E+03
 cg2d: Sum(rhs),rhsMax =   1.81906013785464E-01  1.52894732144362E+00
(PID.TID 0000.0001)  cg2d: iter=     1 ; resid.=  1.55878751104568E-01
(PID.TID 0000.0001)  cg2d: iter=     2 ; resid.=  1.30915485252802E-01
(PID.TID 0000.0001)  cg2d: iter=     3 ; resid.=  1.25311980010980E-01
(PID.TID 0000.0001)  cg2d: iter=     4 ; resid.=  1.10410541004472E-01
(PID.TID 0000.0001)  cg2d: iter=     5 ; resid.=  8.58753592107080E-02
(PID.TID 0000.0001)  cg2d: iter=     6 ; resid.=  6.30367355122962E-02
(PID.TID 0000.0001)  cg2d: iter=     7 ; resid.=  5.24712748794644E-02
(PID.TID 0000.0001)  cg2d: iter=     8 ; resid.=  4.83491851382512E-02
(PID.TID 0000.0001)  cg2d: iter=     9 ; resid.=  4.20723670995834E-02
(PID.TID 0000.0001)  cg2d: iter=    10 ; resid.=  3.60343453040218E-02
(PID.TID 0000.0001)  cg2d: iter=    11 ; resid.=  3.34730793162127E-02
(PID.TID 0000.0001)  cg2d: iter=    12 ; resid.=  2.71559136736721E-02
(PID.TID 0000.0001)  cg2d: iter=    13 ; resid.=  2.18081597783514E-02
(PID.TID 0000.0001)  cg2d: iter=    14 ; resid.=  1.73442483534576E-02
(PID.TID 0000.0001)  cg2d: iter=    15 ; resid.=  1.37720013984478E-02
(PID.TID 0000.0001)  cg2d: iter=    16 ; resid.=  1.14127536948868E-02
(PID.TID 0000.0001)  cg2d: iter=    17 ; resid.=  1.04302322406085E-02
(PID.TID 0000.0001)  cg2d: iter=    18 ; resid.=  9.02045073828256E-03
(PID.TID 0000.0001)  cg2d: iter=    19 ; resid.=  7.28288575198943E-03
(PID.TID 0000.0001)  cg2d: iter=    20 ; resid.=  6.02041266990076E-03
(PID.TID 0000.0001)  cg2d: iter=    21 ; resid.=  5.14771741628268E-03
(PID.TID 0000.0001)  cg2d: iter=    22 ; resid.=  4.28796056426139E-03
(PID.TID 0000.0001)  cg2d: iter=    23 ; resid.=  3.58287538177548E-03
(PID.TID 0000.0001)  cg2d: iter=    24 ; resid.=  3.06465583853264E-03
(PID.TID 0000.0001)  cg2d: iter=    25 ; resid.=  2.33645881945384E-03
(PID.TID 0000.0001)  cg2d: iter=    26 ; resid.=  1.81077748404771E-03
(PID.TID 0000.0001)  cg2d: iter=    27 ; resid.=  1.59935681019390E-03
(PID.TID 0000.0001)  cg2d: iter=    28 ; resid.=  1.36957921330351E-03
(PID.TID 0000.0001)  cg2d: iter=    29 ; resid.=  1.09937442681217E-03
(PID.TID 0000.0001)  cg2d: iter=    30 ; resid.=  8.81674290755136E-04
(PID.TID 0000.0001)  cg2d: iter=    31 ; resid.=  7.80017191317330E-04
(PID.TID 0000.0001)  cg2d: iter=    32 ; resid.=  6.55707303087448E-04
(PID.TID 0000.0001)  cg2d: iter=    33 ; resid.=  5.23534609471870E-04
(PID.TID 0000.0001)  cg2d: iter=    34 ; resid.=  4.36998164693097E-04
(PID.TID 0000.0001)  cg2d: iter=    35 ; resid.=  3.61413809298580E-04
(PID.TID 0000.0001)  cg2d: iter=    36 ; resid.=  2.97277489551886E-04
(PID.TID 0000.0001)  cg2d: iter=    37 ; resid.=  2.54429481907641E-04
(PID.TID 0000.0001)  cg2d: iter=    38 ; resid.=  2.19334906984617E-04
(PID.TID 0000.0001)  cg2d: iter=    39 ; resid.=  1.78812451453419E-04
(PID.TID 0000.0001)  cg2d: iter=    40 ; resid.=  1.51030085253717E-04
(PID.TID 0000.0001)  cg2d: iter=    41 ; resid.=  1.28685784278887E-04
(PID.TID 0000.0001)  cg2d: iter=    42 ; resid.=  1.15118453508449E-04
(PID.TID 0000.0001)  cg2d: iter=    43 ; resid.=  1.03454956658750E-04
(PID.TID 0000.0001)  cg2d: iter=    44 ; resid.=  9.09025752331936E-05
(PID.TID 0000.0001)  cg2d: iter=    45 ; resid.=  7.77343662123549E-05
(PID.TID 0000.0001)  cg2d: iter=    46 ; resid.=  6.13242680543762E-05
(PID.TID 0000.0001)  cg2d: iter=    47 ; resid.=  5.02692552510045E-05
(PID.TID 0000.0001)  cg2d: iter=    48 ; resid.=  4.11592021873487E-05
(PID.TID 0000.0001)  cg2d: iter=    49 ; resid.=  3.17118595234314E-05
(PID.TID 0000.0001)  cg2d: iter=    50 ; resid.=  2.48097025204666E-05
(PID.TID 0000.0001)  cg2d: iter=    51 ; resid.=  1.98887436438056E-05
(PID.TID 0000.0001)  cg2d: iter=    52 ; resid.=  1.66922438083683E-05
(PID.TID 0000.0001)  cg2d: iter=    53 ; resid.=  1.54493838979904E-05
(PID.TID 0000.0001)  cg2d: iter=    54 ; resid.=  1.38583278266967E-05
(PID.TID 0000.0001)  cg2d: iter=    55 ; resid.=  1.13181194728514E-05
(PID.TID 0000.0001)  cg2d: iter=    56 ; resid.=  9.70539284322040E-06
(PID.TID 0000.0001)  cg2d: iter=    57 ; resid.=  8.11441481718291E-06
(PID.TID 0000.0001)  cg2d: iter=    58 ; resid.=  6.55118913018665E-06
(PID.TID 0000.0001)  cg2d: iter=    59 ; resid.=  5.52097104264883E-06
(PID.TID 0000.0001)  cg2d: iter=    60 ; resid.=  4.42030455526555E-06
(PID.TID 0000.0001)  cg2d: iter=    61 ; resid.=  3.46248110406845E-06
(PID.TID 0000.0001)  cg2d: iter=    62 ; resid.=  2.72261532749364E-06
(PID.TID 0000.0001)  cg2d: iter=    63 ; resid.=  2.33362439553451E-06
(PID.TID 0000.0001)  cg2d: iter=    64 ; resid.=  1.97993314222493E-06
(PID.TID 0000.0001)  cg2d: iter=    65 ; resid.=  1.57370010598031E-06
(PID.TID 0000.0001)  cg2d: iter=    66 ; resid.=  1.19134442403723E-06
(PID.TID 0000.0001)  cg2d: iter=    67 ; resid.=  9.90876412224247E-07
(PID.TID 0000.0001)  cg2d: iter=    68 ; resid.=  8.47889116836807E-07
(PID.TID 0000.0001)  cg2d: iter=    69 ; resid.=  6.87405981026095E-07
(PID.TID 0000.0001)  cg2d: iter=    70 ; resid.=  6.06196870282237E-07
(PID.TID 0000.0001)  cg2d: iter=    71 ; resid.=  4.86510268698214E-07
(PID.TID 0000.0001)  cg2d: iter=    72 ; resid.=  3.82773127918385E-07
(PID.TID 0000.0001)  cg2d: iter=    73 ; resid.=  3.37292300332000E-07
(PID.TID 0000.0001)  cg2d: iter=    74 ; resid.=  2.85262784571912E-07
(PID.TID 0000.0001)  cg2d: iter=    75 ; resid.=  2.22004518583857E-07
(PID.TID 0000.0001)  cg2d: iter=    76 ; resid.=  1.78242708438394E-07
(PID.TID 0000.0001)  cg2d: iter=    77 ; resid.=  1.65409563913304E-07
(PID.TID 0000.0001)  cg2d: iter=    78 ; resid.=  1.34842796936719E-07
(PID.TID 0000.0001)  cg2d: iter=    79 ; resid.=  1.18954949969876E-07
(PID.TID 0000.0001)  cg2d: iter=    80 ; resid.=  9.94184848931323E-08
(PID.TID 0000.0001)  cg2d: iter=    81 ; resid.=  8.26110482260956E-08
(PID.TID 0000.0001)  cg2d: iter=    82 ; resid.=  6.72247121272547E-08
(PID.TID 0000.0001)  cg2d: iter=    83 ; resid.=  4.94308524624929E-08
(PID.TID 0000.0001)  cg2d: iter=    84 ; resid.=  3.69418727615102E-08
(PID.TID 0000.0001)  cg2d: iter=    85 ; resid.=  2.70468920878260E-08
(PID.TID 0000.0001)  cg2d: iter=    86 ; resid.=  2.02025032312946E-08
(PID.TID 0000.0001)  cg2d: iter=    87 ; resid.=  1.60769448320030E-08
(PID.TID 0000.0001)  cg2d: iter=    88 ; resid.=  1.40857773185472E-08
(PID.TID 0000.0001)  cg2d: iter=    89 ; resid.=  1.18094201589594E-08
(PID.TID 0000.0001)  cg2d: iter=    90 ; resid.=  9.13921908833768E-09
(PID.TID 0000.0001)  cg2d: iter=    91 ; resid.=  7.01700048115387E-09
(PID.TID 0000.0001)  cg2d: iter=    92 ; resid.=  5.13651283743389E-09
(PID.TID 0000.0001)  cg2d: iter=    93 ; resid.=  3.48826612174859E-09
(PID.TID 0000.0001)  cg2d: iter=    94 ; resid.=  2.47569743688203E-09
(PID.TID 0000.0001)  cg2d: iter=    95 ; resid.=  1.91227152761853E-09
(PID.TID 0000.0001)  cg2d: iter=    96 ; resid.=  1.47231093942447E-09
(PID.TID 0000.0001)  cg2d: iter=    97 ; resid.=  1.08040342570728E-09
(PID.TID 0000.0001)  cg2d: iter=    98 ; resid.=  8.07737331946628E-10
(PID.TID 0000.0001)  cg2d: iter=    99 ; resid.=  6.11467730579520E-10
(PID.TID 0000.0001)  cg2d: iter=   100 ; resid.=  4.72587934371548E-10
(PID.TID 0000.0001)  cg2d: iter=   101 ; resid.=  3.52315375989206E-10
(PID.TID 0000.0001)  cg2d: iter=   102 ; resid.=  2.67787711839710E-10
(PID.TID 0000.0001)  cg2d: iter=   103 ; resid.=  1.98424340959629E-10
(PID.TID 0000.0001)  cg2d: iter=   104 ; resid.=  1.42331975254865E-10
(PID.TID 0000.0001)  cg2d: iter=   105 ; resid.=  9.82717157958950E-11
(PID.TID 0000.0001)  cg2d: iter=   106 ; resid.=  7.32149301959042E-11
(PID.TID 0000.0001)  cg2d: iter=   107 ; resid.=  5.59300973346888E-11
(PID.TID 0000.0001)  cg2d: iter=   108 ; resid.=  4.25571254932378E-11
(PID.TID 0000.0001)  cg2d: iter=   109 ; resid.=  3.38076541436101E-11
(PID.TID 0000.0001)  cg2d: iter=   110 ; resid.=  2.65063551544848E-11
(PID.TID 0000.0001)  cg2d: iter=   111 ; resid.=  2.05939293401697E-11
(PID.TID 0000.0001)  cg2d: iter=   112 ; resid.=  1.65815226522658E-11
(PID.TID 0000.0001)  cg2d: iter=   113 ; resid.=  1.30859218295256E-11
(PID.TID 0000.0001)  cg2d: iter=   114 ; resid.=  1.01980069784094E-11
(PID.TID 0000.0001)  cg2d: iter=   115 ; resid.=  7.48723206315876E-12
(PID.TID 0000.0001)  cg2d: iter=   116 ; resid.=  5.45811645808823E-12
(PID.TID 0000.0001)  cg2d: iter=   117 ; resid.=  4.07806988217448E-12
(PID.TID 0000.0001)  cg2d: iter=   118 ; resid.=  3.01734952580154E-12
(PID.TID 0000.0001)  cg2d: iter=   119 ; resid.=  2.19658116016151E-12
(PID.TID 0000.0001)  cg2d: iter=   120 ; resid.=  1.74082069663037E-12
(PID.TID 0000.0001)  cg2d: iter=   121 ; resid.=  1.38561639568534E-12
(PID.TID 0000.0001)  cg2d: iter=   122 ; resid.=  1.08211658467249E-12
(PID.TID 0000.0001)  cg2d: iter=   123 ; resid.=  8.50177800055553E-13
(PID.TID 0000.0001)  cg2d: iter=   124 ; resid.=  7.15371918592313E-13
(PID.TID 0000.0001)  cg2d: iter=   125 ; resid.=  6.70698094266803E-13
(PID.TID 0000.0001)  cg2d: iter=   126 ; resid.=  6.16938885629891E-13
(PID.TID 0000.0001)  cg2d: iter=   127 ; resid.=  4.94029406105609E-13
(PID.TID 0000.0001)  cg2d: iter=   128 ; resid.=  3.88825639979532E-13
(PID.TID 0000.0001)  cg2d: iter=   129 ; resid.=  3.13330905431437E-13
(PID.TID 0000.0001)  cg2d: iter=   130 ; resid.=  2.49971476527940E-13
(PID.TID 0000.0001)  cg2d: iter=   131 ; resid.=  1.97349148953069E-13
(PID.TID 0000.0001)  cg2d: iter=   132 ; resid.=  1.42434280359669E-13
(PID.TID 0000.0001)  cg2d: iter=   133 ; resid.=  1.10692057761991E-13
(PID.TID 0000.0001)  cg2d: iter=   134 ; resid.=  8.42863740112563E-14
DEBUG_STATS_RL:    cg2d_x (SOLVE_FOR_PRESSURE)  min= -1.68441808791039E+01
DEBUG_STATS_RL:    cg2d_x (SOLVE_FOR_PRESSURE)  max=  7.99924809808227E+00
DEBUG_STATS_RL:    cg2d_x (SOLVE_FOR_PRESSURE) mean= -1.53679159532515E+00
DEBUG_STATS_RL:    cg2d_x (SOLVE_FOR_PRESSURE) S.D.=  6.13718318536779E+00
(PID.TID 0000.0001)      cg2d_init_res =   4.37511365207365E-01
(PID.TID 0000.0001)      cg2d_iters(min,last) =      -1     134
(PID.TID 0000.0001)      cg2d_last_res =   8.42863740112563E-14
(PID.TID 0000.0001) // =======================================================
(PID.TID 0000.0001) // Begin MONITOR dynamic field statistics
(PID.TID 0000.0001) // =======================================================
(PID.TID 0000.0001) %MON time_tsnumber                =                    26
(PID.TID 0000.0001) %MON time_secondsf                =   2.2464000000000E+06
(PID.TID 0000.0001) %MON dynstat_eta_max              =   8.1541774700125E-01
(PID.TID 0000.0001) %MON dynstat_eta_min              =  -1.7170418837008E+00
(PID.TID 0000.0001) %MON dynstat_eta_mean             =  -1.9084403089848E-03
(PID.TID 0000.0001) %MON dynstat_eta_sd               =   5.3761618926667E-01
(PID.TID 0000.0001) %MON dynstat_eta_del2             =   2.0303271013852E-03
(PID.TID 0000.0001) %MON dynstat_uvel_max             =   1.1898936306528E-01
(PID.TID 0000.0001) %MON dynstat_uvel_min             =  -1.6581582878892E-01
(PID.TID 0000.0001) %MON dynstat_uvel_mean            =   7.2238363173864E-04
(PID.TID 0000.0001) %MON dynstat_uvel_sd              =   1.2808106880698E-02
(PID.TID 0000.0001) %MON dynstat_uvel_del2            =   8.0414126061755E-05
(PID.TID 0000.0001) %MON dynstat_vvel_max             =   1.2629329258352E-01
(PID.TID 0000.0001) %MON dynstat_vvel_min             =  -1.3342351381954E-01
(PID.TID 0000.0001) %MON dynstat_vvel_mean            =   1.2888812124314E-04
(PID.TID 0000.0001) %MON dynstat_vvel_sd              =   9.7693593849482E-03
(PID.TID 0000.0001) %MON dynstat_vvel_del2            =   8.1002874473017E-05
(PID.TID 0000.0001) %MON dynstat_wvel_max             =   1.1576355142048E-04
(PID.TID 0000.0001) %MON dynstat_wvel_min             =  -1.3406092080281E-04
(PID.TID 0000.0001) %MON dynstat_wvel_mean            =  -3.8694588904084E-23
(PID.TID 0000.0001) %MON dynstat_wvel_sd              =   1.5097974736212E-05
(PID.TID 0000.0001) %MON dynstat_wvel_del2            =   1.6513360809564E-07
(PID.TID 0000.0001) %MON dynstat_theta_max            =   2.9916000970711E+01
(PID.TID 0000.0001) %MON dynstat_theta_min            =  -2.0107443532113E+00
(PID.TID 0000.0001) %MON dynstat_theta_mean           =   3.6307741393370E+00
(PID.TID 0000.0001) %MON dynstat_theta_sd             =   4.4167228348818E+00
(PID.TID 0000.0001) %MON dynstat_theta_del2           =   4.8490330984429E-03
(PID.TID 0000.0001) %MON dynstat_salt_max             =   3.7457388778558E+01
(PID.TID 0000.0001) %MON dynstat_salt_min             =   2.9819100627924E+01
(PID.TID 0000.0001) %MON dynstat_salt_mean            =   3.4727960137262E+01
(PID.TID 0000.0001) %MON dynstat_salt_sd              =   2.9619987808035E-01
(PID.TID 0000.0001) %MON dynstat_salt_del2            =   1.0038287069322E-03
(PID.TID 0000.0001) %MON dynstat_sst_max              =   2.9916000970711E+01
(PID.TID 0000.0001) %MON dynstat_sst_min              =  -2.0107443532113E+00
(PID.TID 0000.0001) %MON dynstat_sst_mean             =   1.8722078764473E+01
(PID.TID 0000.0001) %MON dynstat_sst_sd               =   9.0596641627278E+00
(PID.TID 0000.0001) %MON dynstat_sst_del2             =   2.6451941176938E-02
(PID.TID 0000.0001) %MON dynstat_sss_max              =   3.7441370972508E+01
(PID.TID 0000.0001) %MON dynstat_sss_min              =   2.9819100627924E+01
(PID.TID 0000.0001) %MON dynstat_sss_mean             =   3.4858974013504E+01
(PID.TID 0000.0001) %MON dynstat_sss_sd               =   9.7412703263964E-01
(PID.TID 0000.0001) %MON dynstat_sss_del2             =   7.9150779815089E-03
(PID.TID 0000.0001) %MON forcing_qnet_max             =   4.0842274983724E+02
(PID.TID 0000.0001) %MON forcing_qnet_min             =  -1.7762435404460E+02
(PID.TID 0000.0001) %MON forcing_qnet_mean            =  -1.5663434327010E+01
(PID.TID 0000.0001) %MON forcing_qnet_sd              =   9.9257487839865E+01
(PID.TID 0000.0001) %MON forcing_qnet_del2            =   9.8746228186851E-01
(PID.TID 0000.0001) %MON forcing_qsw_max              =   0.0000000000000E+00
(PID.TID 0000.0001) %MON forcing_qsw_min              =   0.0000000000000E+00
(PID.TID 0000.0001) %MON forcing_qsw_mean             =   0.0000000000000E+00
(PID.TID 0000.0001) %MON forcing_qsw_sd               =   0.0000000000000E+00
(PID.TID 0000.0001) %MON forcing_qsw_del2             =   0.0000000000000E+00
(PID.TID 0000.0001) %MON forcing_empmr_max            =   7.9033341648937E-05
(PID.TID 0000.0001) %MON forcing_empmr_min            =  -7.6952398823475E-05
(PID.TID 0000.0001) %MON forcing_empmr_mean           =   9.2976103471021E-07
(PID.TID 0000.0001) %MON forcing_empmr_sd             =   2.8346308992535E-05
(PID.TID 0000.0001) %MON forcing_empmr_del2           =   3.5774711297823E-07
(PID.TID 0000.0001) %MON forcing_fu_max               =   2.7689236402512E-01
(PID.TID 0000.0001) %MON forcing_fu_min               =  -1.8253387510777E-01
(PID.TID 0000.0001) %MON forcing_fu_mean              =   1.6544737307256E-02
(PID.TID 0000.0001) %MON forcing_fu_sd                =   8.9976513162372E-02
(PID.TID 0000.0001) %MON forcing_fu_del2              =   6.7244408205288E-04
(PID.TID 0000.0001) %MON forcing_fv_max               =   2.0103685061137E-01
(PID.TID 0000.0001) %MON forcing_fv_min               =  -1.6822390258312E-01
(PID.TID 0000.0001) %MON forcing_fv_mean              =  -5.9115068066569E-03
(PID.TID 0000.0001) %MON forcing_fv_sd                =   4.5661871186592E-02
(PID.TID 0000.0001) %MON forcing_fv_del2              =   4.6455732257683E-04
(PID.TID 0000.0001) %MON trAdv_CFL_u_max              =   3.2496685358629E-02
(PID.TID 0000.0001) %MON trAdv_CFL_v_max              =   2.7304879166648E-02
(PID.TID 0000.0001) %MON trAdv_CFL_w_max              =   4.5653470893580E-02
(PID.TID 0000.0001) %MON advcfl_uvel_max              =   3.3201585140605E-02
(PID.TID 0000.0001) %MON advcfl_vvel_max              =   2.5922048879242E-02
(PID.TID 0000.0001) %MON advcfl_wvel_max              =   4.0105002972053E-02
(PID.TID 0000.0001) %MON advcfl_W_hf_max              =   4.8025789381403E-02
(PID.TID 0000.0001) %MON pe_b_mean                    =   3.6985487643490E-04
(PID.TID 0000.0001) %MON ke_max                       =   1.3506713363153E-02
(PID.TID 0000.0001) %MON ke_mean                      =   1.1762121677990E-04
(PID.TID 0000.0001) %MON ke_vol                       =   1.3226782436723E+18
(PID.TID 0000.0001) %MON vort_r_min                   =  -2.9301035166922E-07
(PID.TID 0000.0001) %MON vort_r_max                   =   3.7940723017501E-07
(PID.TID 0000.0001) %MON vort_a_mean                  =  -2.5274806994569E-05
(PID.TID 0000.0001) %MON vort_a_sd                    =   7.3604406155275E-05
(PID.TID 0000.0001) %MON vort_p_mean                  =  -3.1845655291850E-05
(PID.TID 0000.0001) %MON vort_p_sd                    =   1.3162622200624E-04
(PID.TID 0000.0001) %MON surfExpan_theta_mean         =  -2.1648546693764E-07
(PID.TID 0000.0001) %MON surfExpan_salt_mean          =   2.1692039451679E-08
(PID.TID 0000.0001) // =======================================================
(PID.TID 0000.0001) // End MONITOR dynamic field statistics
(PID.TID 0000.0001) // =======================================================
 EXTERNAL_FIELDS_LOAD,        26 : iP,iLd,i0,i1=    1    2    1    2 ; Wght=  0.6333333333  0.3666666667
 EXTERNAL_FIELDS_LOAD: (fu0,1),fu,fv= -3.5633E-02 -1.4435E-02 -2.7860E-02 -4.2729E-02
 EXTERNAL_FIELDS_LOAD: SST,SSS,Q,E-P=  4.1199E-01  3.4607E+01  2.5650E+02  1.0441E-05
DEBUG_STATS_RL:          Uvel (THERMODYNAMICS)  min= -1.65815828788916E-01
DEBUG_STATS_RL:          Uvel (THERMODYNAMICS)  max=  1.18989363065278E-01
DEBUG_STATS_RL:          Uvel (THERMODYNAMICS) mean=  2.39170706184438E-03
DEBUG_STATS_RL:          Uvel (THERMODYNAMICS) S.D.=  1.88833972466923E-02
DEBUG_STATS_RL:          Vvel (THERMODYNAMICS)  min= -1.33423513819544E-01
DEBUG_STATS_RL:          Vvel (THERMODYNAMICS)  max=  1.26293292583519E-01
DEBUG_STATS_RL:          Vvel (THERMODYNAMICS) mean=  1.53802310278655E-03
DEBUG_STATS_RL:          Vvel (THERMODYNAMICS) S.D.=  1.54809223078408E-02
DEBUG_STATS_RL:          Wvel (THERMODYNAMICS)  min= -1.34060920802810E-04
DEBUG_STATS_RL:          Wvel (THERMODYNAMICS)  max=  1.15763551420484E-04
DEBUG_STATS_RL:          Wvel (THERMODYNAMICS) mean=  2.94535569570074E-07
DEBUG_STATS_RL:          Wvel (THERMODYNAMICS) S.D.=  1.35406595177915E-05
DEBUG_STATS_RL:         Theta (THERMODYNAMICS)  min= -2.01008779115080E+00
DEBUG_STATS_RL:         Theta (THERMODYNAMICS)  max=  2.99304628160244E+01
DEBUG_STATS_RL:         Theta (THERMODYNAMICS) mean=  3.21866944390960E+00
DEBUG_STATS_RL:         Theta (THERMODYNAMICS) S.D.=  5.85816194522093E+00
DEBUG_STATS_RL:          Salt (THERMODYNAMICS)  min=  9.99999999999999E-03
DEBUG_STATS_RL:          Salt (THERMODYNAMICS)  max=  3.74584457474924E+01
DEBUG_STATS_RL:          Salt (THERMODYNAMICS) mean=  1.88550226010198E+01
DEBUG_STATS_RL:          Salt (THERMODYNAMICS) S.D.=  1.73005188666123E+01
DEBUG_STATS_RL:         GtNm1 (THERMODYNAMICS)  min= -4.12690731484152E-06
DEBUG_STATS_RL:         GtNm1 (THERMODYNAMICS)  max=  2.63239347309617E-06
DEBUG_STATS_RL:         GtNm1 (THERMODYNAMICS) mean= -7.79870372061249E-11
DEBUG_STATS_RL:         GtNm1 (THERMODYNAMICS) S.D.=  2.28034656450678E-07
DEBUG_STATS_RL:         GsNm1 (THERMODYNAMICS)  min= -8.57909494392363E-07
DEBUG_STATS_RL:         GsNm1 (THERMODYNAMICS)  max=  6.54601474837832E-07
DEBUG_STATS_RL:         GsNm1 (THERMODYNAMICS) mean= -6.88160669426378E-10
DEBUG_STATS_RL:         GsNm1 (THERMODYNAMICS) S.D.=  2.11808109283443E-08
DEBUG_STATS_RL:                EtaN (DYNAMICS)  min= -1.71704188370075E+00
DEBUG_STATS_RL:                EtaN (DYNAMICS)  max=  8.15417747001253E-01
DEBUG_STATS_RL:                EtaN (DYNAMICS) mean= -1.56655616241096E-01
DEBUG_STATS_RL:                EtaN (DYNAMICS) S.D.=  6.25604809925363E-01
DEBUG_STATS_RL:                Uvel (DYNAMICS)  min= -1.65815828788916E-01
DEBUG_STATS_RL:                Uvel (DYNAMICS)  max=  1.18989363065278E-01
DEBUG_STATS_RL:                Uvel (DYNAMICS) mean=  2.39170706184438E-03
DEBUG_STATS_RL:                Uvel (DYNAMICS) S.D.=  1.88833972466923E-02
DEBUG_STATS_RL:                Vvel (DYNAMICS)  min= -1.33423513819544E-01
DEBUG_STATS_RL:                Vvel (DYNAMICS)  max=  1.26293292583519E-01
DEBUG_STATS_RL:                Vvel (DYNAMICS) mean=  1.53802310278655E-03
DEBUG_STATS_RL:                Vvel (DYNAMICS) S.D.=  1.54809223078408E-02
DEBUG_STATS_RL:                Wvel (DYNAMICS)  min= -1.34060920802810E-04
DEBUG_STATS_RL:                Wvel (DYNAMICS)  max=  1.15763551420484E-04
DEBUG_STATS_RL:                Wvel (DYNAMICS) mean=  2.94535569570074E-07
DEBUG_STATS_RL:                Wvel (DYNAMICS) S.D.=  1.35406595177915E-05
DEBUG_STATS_RL:               Theta (DYNAMICS)  min= -2.01008779115080E+00
DEBUG_STATS_RL:               Theta (DYNAMICS)  max=  2.99304628160244E+01
DEBUG_STATS_RL:               Theta (DYNAMICS) mean=  3.21866944390960E+00
DEBUG_STATS_RL:               Theta (DYNAMICS) S.D.=  5.85816194522093E+00
DEBUG_STATS_RL:                Salt (DYNAMICS)  min=  9.99999999999999E-03
DEBUG_STATS_RL:                Salt (DYNAMICS)  max=  3.74584457474924E+01
DEBUG_STATS_RL:                Salt (DYNAMICS) mean=  1.88550226010198E+01
DEBUG_STATS_RL:                Salt (DYNAMICS) S.D.=  1.73005188666123E+01
DEBUG_STATS_RL:                  Gu (DYNAMICS)  min= -1.70166821699107E-01
DEBUG_STATS_RL:                  Gu (DYNAMICS)  max=  1.17712788215271E-01
DEBUG_STATS_RL:                  Gu (DYNAMICS) mean=  2.40643286858866E-03
DEBUG_STATS_RL:                  Gu (DYNAMICS) S.D.=  1.92127417571927E-02
DEBUG_STATS_RL:                  Gv (DYNAMICS)  min= -1.41232765416154E-01
DEBUG_STATS_RL:                  Gv (DYNAMICS)  max=  1.33232652664549E-01
DEBUG_STATS_RL:                  Gv (DYNAMICS) mean=  3.55838689598299E-03
DEBUG_STATS_RL:                  Gv (DYNAMICS) S.D.=  1.66166075331948E-02
DEBUG_STATS_RL:               GuNm1 (DYNAMICS)  min= -7.57646951749229E-06
DEBUG_STATS_RL:               GuNm1 (DYNAMICS)  max=  7.84375819041807E-06
DEBUG_STATS_RL:               GuNm1 (DYNAMICS) mean= -1.19454874518374E-08
DEBUG_STATS_RL:               GuNm1 (DYNAMICS) S.D.=  1.19556329256812E-06
DEBUG_STATS_RL:               GvNm1 (DYNAMICS)  min= -1.05040995068651E-05
DEBUG_STATS_RL:               GvNm1 (DYNAMICS)  max=  1.68713147278886E-05
DEBUG_STATS_RL:               GvNm1 (DYNAMICS) mean=  7.68963256214420E-07
DEBUG_STATS_RL:               GvNm1 (DYNAMICS) S.D.=  2.64517984854370E-06
DEBUG_STATS_RL:               GtNm1 (DYNAMICS)  min= -4.12690731484152E-06
DEBUG_STATS_RL:               GtNm1 (DYNAMICS)  max=  2.63239347309617E-06
DEBUG_STATS_RL:               GtNm1 (DYNAMICS) mean= -7.79870372061249E-11
DEBUG_STATS_RL:               GtNm1 (DYNAMICS) S.D.=  2.28034656450678E-07
DEBUG_STATS_RL:               GsNm1 (DYNAMICS)  min= -8.57909494392363E-07
DEBUG_STATS_RL:               GsNm1 (DYNAMICS)  max=  6.54601474837832E-07
DEBUG_STATS_RL:               GsNm1 (DYNAMICS) mean= -6.88160669426378E-10
DEBUG_STATS_RL:               GsNm1 (DYNAMICS) S.D.=  2.11808109283443E-08
DEBUG_STATS_RL:    cg2d_b (SOLVE_FOR_PRESSURE)  min= -2.29992411132674E+04
DEBUG_STATS_RL:    cg2d_b (SOLVE_FOR_PRESSURE)  max=  1.82966923986657E+04
DEBUG_STATS_RL:    cg2d_b (SOLVE_FOR_PRESSURE) mean=  1.90354397717713E+00
DEBUG_STATS_RL:    cg2d_b (SOLVE_FOR_PRESSURE) S.D.=  3.77898675982600E+03
 cg2d: Sum(rhs),rhsMax =   1.91602161369695E-01  1.51065173507891E+00
(PID.TID 0000.0001)  cg2d: iter=     1 ; resid.=  1.48667126772435E-01
(PID.TID 0000.0001)  cg2d: iter=     2 ; resid.=  1.14950296701521E-01
(PID.TID 0000.0001)  cg2d: iter=     3 ; resid.=  1.04444180930141E-01
(PID.TID 0000.0001)  cg2d: iter=     4 ; resid.=  8.80079936204016E-02
(PID.TID 0000.0001)  cg2d: iter=     5 ; resid.=  6.58927121174470E-02
(PID.TID 0000.0001)  cg2d: iter=     6 ; resid.=  4.79020354236826E-02
(PID.TID 0000.0001)  cg2d: iter=     7 ; resid.=  3.84789728486074E-02
(PID.TID 0000.0001)  cg2d: iter=     8 ; resid.=  3.27600309028240E-02
(PID.TID 0000.0001)  cg2d: iter=     9 ; resid.=  2.80488400329850E-02
(PID.TID 0000.0001)  cg2d: iter=    10 ; resid.=  2.46558237964741E-02
(PID.TID 0000.0001)  cg2d: iter=    11 ; resid.=  2.41711473954632E-02
(PID.TID 0000.0001)  cg2d: iter=    12 ; resid.=  2.11999281996315E-02
(PID.TID 0000.0001)  cg2d: iter=    13 ; resid.=  1.82172431274933E-02
(PID.TID 0000.0001)  cg2d: iter=    14 ; resid.=  1.45713224123651E-02
(PID.TID 0000.0001)  cg2d: iter=    15 ; resid.=  1.16499735518158E-02
(PID.TID 0000.0001)  cg2d: iter=    16 ; resid.=  9.52055785933723E-03
(PID.TID 0000.0001)  cg2d: iter=    17 ; resid.=  8.25336543228944E-03
(PID.TID 0000.0001)  cg2d: iter=    18 ; resid.=  6.91888024455967E-03
(PID.TID 0000.0001)  cg2d: iter=    19 ; resid.=  5.46278044569789E-03
(PID.TID 0000.0001)  cg2d: iter=    20 ; resid.=  4.34325916394136E-03
(PID.TID 0000.0001)  cg2d: iter=    21 ; resid.=  3.62947706514873E-03
(PID.TID 0000.0001)  cg2d: iter=    22 ; resid.=  3.04412090643712E-03
(PID.TID 0000.0001)  cg2d: iter=    23 ; resid.=  2.58594048128258E-03
(PID.TID 0000.0001)  cg2d: iter=    24 ; resid.=  2.23182623876294E-03
(PID.TID 0000.0001)  cg2d: iter=    25 ; resid.=  1.69676877760948E-03
(PID.TID 0000.0001)  cg2d: iter=    26 ; resid.=  1.29886250913052E-03
(PID.TID 0000.0001)  cg2d: iter=    27 ; resid.=  1.10494412029959E-03
(PID.TID 0000.0001)  cg2d: iter=    28 ; resid.=  9.34729943057075E-04
(PID.TID 0000.0001)  cg2d: iter=    29 ; resid.=  7.47580414926031E-04
(PID.TID 0000.0001)  cg2d: iter=    30 ; resid.=  5.80705697087805E-04
(PID.TID 0000.0001)  cg2d: iter=    31 ; resid.=  5.00646781358691E-04
(PID.TID 0000.0001)  cg2d: iter=    32 ; resid.=  4.28431321854124E-04
(PID.TID 0000.0001)  cg2d: iter=    33 ; resid.=  3.47802068650683E-04
(PID.TID 0000.0001)  cg2d: iter=    34 ; resid.=  2.96481893349635E-04
(PID.TID 0000.0001)  cg2d: iter=    35 ; resid.=  2.51349410283149E-04
(PID.TID 0000.0001)  cg2d: iter=    36 ; resid.=  2.13807957698802E-04
(PID.TID 0000.0001)  cg2d: iter=    37 ; resid.=  1.89166094719007E-04
(PID.TID 0000.0001)  cg2d: iter=    38 ; resid.=  1.64525190571708E-04
(PID.TID 0000.0001)  cg2d: iter=    39 ; resid.=  1.29794078800612E-04
(PID.TID 0000.0001)  cg2d: iter=    40 ; resid.=  1.01599388223474E-04
(PID.TID 0000.0001)  cg2d: iter=    41 ; resid.=  8.16007360307670E-05
(PID.TID 0000.0001)  cg2d: iter=    42 ; resid.=  7.05103775292129E-05
(PID.TID 0000.0001)  cg2d: iter=    43 ; resid.=  6.07356104159435E-05
(PID.TID 0000.0001)  cg2d: iter=    44 ; resid.=  5.23809184064089E-05
(PID.TID 0000.0001)  cg2d: iter=    45 ; resid.=  4.78254278911133E-05
(PID.TID 0000.0001)  cg2d: iter=    46 ; resid.=  4.08763044674242E-05
(PID.TID 0000.0001)  cg2d: iter=    47 ; resid.=  3.59061284336356E-05
(PID.TID 0000.0001)  cg2d: iter=    48 ; resid.=  3.18336035534889E-05
(PID.TID 0000.0001)  cg2d: iter=    49 ; resid.=  2.60007039033218E-05
(PID.TID 0000.0001)  cg2d: iter=    50 ; resid.=  2.03164189395019E-05
(PID.TID 0000.0001)  cg2d: iter=    51 ; resid.=  1.60651439875332E-05
(PID.TID 0000.0001)  cg2d: iter=    52 ; resid.=  1.29929529954265E-05
(PID.TID 0000.0001)  cg2d: iter=    53 ; resid.=  1.12802517997577E-05
(PID.TID 0000.0001)  cg2d: iter=    54 ; resid.=  9.69605469783264E-06
(PID.TID 0000.0001)  cg2d: iter=    55 ; resid.=  7.80683625840200E-06
(PID.TID 0000.0001)  cg2d: iter=    56 ; resid.=  6.71402441618372E-06
(PID.TID 0000.0001)  cg2d: iter=    57 ; resid.=  5.61370226796909E-06
(PID.TID 0000.0001)  cg2d: iter=    58 ; resid.=  4.53068413898795E-06
(PID.TID 0000.0001)  cg2d: iter=    59 ; resid.=  3.78044943548962E-06
(PID.TID 0000.0001)  cg2d: iter=    60 ; resid.=  3.08766324763897E-06
(PID.TID 0000.0001)  cg2d: iter=    61 ; resid.=  2.49796715975287E-06
(PID.TID 0000.0001)  cg2d: iter=    62 ; resid.=  1.98819108672088E-06
(PID.TID 0000.0001)  cg2d: iter=    63 ; resid.=  1.61818474221614E-06
(PID.TID 0000.0001)  cg2d: iter=    64 ; resid.=  1.33361893958125E-06
(PID.TID 0000.0001)  cg2d: iter=    65 ; resid.=  1.06487192038327E-06
(PID.TID 0000.0001)  cg2d: iter=    66 ; resid.=  8.06759742782841E-07
(PID.TID 0000.0001)  cg2d: iter=    67 ; resid.=  6.63256158242951E-07
(PID.TID 0000.0001)  cg2d: iter=    68 ; resid.=  5.61000020177976E-07
(PID.TID 0000.0001)  cg2d: iter=    69 ; resid.=  4.57390660593694E-07
(PID.TID 0000.0001)  cg2d: iter=    70 ; resid.=  4.04675503784943E-07
(PID.TID 0000.0001)  cg2d: iter=    71 ; resid.=  3.35367049313611E-07
(PID.TID 0000.0001)  cg2d: iter=    72 ; resid.=  2.67196391991041E-07
(PID.TID 0000.0001)  cg2d: iter=    73 ; resid.=  2.34326429950598E-07
(PID.TID 0000.0001)  cg2d: iter=    74 ; resid.=  1.97372260313648E-07
(PID.TID 0000.0001)  cg2d: iter=    75 ; resid.=  1.47403374971109E-07
(PID.TID 0000.0001)  cg2d: iter=    76 ; resid.=  1.10923160965845E-07
(PID.TID 0000.0001)  cg2d: iter=    77 ; resid.=  9.62153547433048E-08
(PID.TID 0000.0001)  cg2d: iter=    78 ; resid.=  7.47295888832547E-08
(PID.TID 0000.0001)  cg2d: iter=    79 ; resid.=  6.40014642928824E-08
(PID.TID 0000.0001)  cg2d: iter=    80 ; resid.=  5.47543609831410E-08
(PID.TID 0000.0001)  cg2d: iter=    81 ; resid.=  4.99857712780886E-08
(PID.TID 0000.0001)  cg2d: iter=    82 ; resid.=  4.54977775593952E-08
(PID.TID 0000.0001)  cg2d: iter=    83 ; resid.=  3.68823915246906E-08
(PID.TID 0000.0001)  cg2d: iter=    84 ; resid.=  2.94538744715880E-08
(PID.TID 0000.0001)  cg2d: iter=    85 ; resid.=  2.27741779036183E-08
(PID.TID 0000.0001)  cg2d: iter=    86 ; resid.=  1.68959207021845E-08
(PID.TID 0000.0001)  cg2d: iter=    87 ; resid.=  1.27084862522368E-08
(PID.TID 0000.0001)  cg2d: iter=    88 ; resid.=  1.07415078547320E-08
(PID.TID 0000.0001)  cg2d: iter=    89 ; resid.=  9.07968113726949E-09
(PID.TID 0000.0001)  cg2d: iter=    90 ; resid.=  7.13083166875579E-09
(PID.TID 0000.0001)  cg2d: iter=    91 ; resid.=  5.42061340955617E-09
(PID.TID 0000.0001)  cg2d: iter=    92 ; resid.=  3.95954253545680E-09
(PID.TID 0000.0001)  cg2d: iter=    93 ; resid.=  2.80161215660868E-09
(PID.TID 0000.0001)  cg2d: iter=    94 ; resid.=  2.03908068168414E-09
(PID.TID 0000.0001)  cg2d: iter=    95 ; resid.=  1.55875844865350E-09
(PID.TID 0000.0001)  cg2d: iter=    96 ; resid.=  1.17932163261361E-09
(PID.TID 0000.0001)  cg2d: iter=    97 ; resid.=  8.70008567287471E-10
(PID.TID 0000.0001)  cg2d: iter=    98 ; resid.=  6.77891180187349E-10
(PID.TID 0000.0001)  cg2d: iter=    99 ; resid.=  5.36758724058417E-10
(PID.TID 0000.0001)  cg2d: iter=   100 ; resid.=  4.35378825781015E-10
(PID.TID 0000.0001)  cg2d: iter=   101 ; resid.=  3.35438607922504E-10
(PID.TID 0000.0001)  cg2d: iter=   102 ; resid.=  2.64057817032592E-10
(PID.TID 0000.0001)  cg2d: iter=   103 ; resid.=  2.02044888141875E-10
(PID.TID 0000.0001)  cg2d: iter=   104 ; resid.=  1.54230581130153E-10
(PID.TID 0000.0001)  cg2d: iter=   105 ; resid.=  1.15201476761941E-10
(PID.TID 0000.0001)  cg2d: iter=   106 ; resid.=  9.49650722897660E-11
(PID.TID 0000.0001)  cg2d: iter=   107 ; resid.=  8.26145992202253E-11
(PID.TID 0000.0001)  cg2d: iter=   108 ; resid.=  7.26561717766486E-11
(PID.TID 0000.0001)  cg2d: iter=   109 ; resid.=  6.46829919590385E-11
(PID.TID 0000.0001)  cg2d: iter=   110 ; resid.=  5.48642523962034E-11
(PID.TID 0000.0001)  cg2d: iter=   111 ; resid.=  4.47203002507698E-11
(PID.TID 0000.0001)  cg2d: iter=   112 ; resid.=  3.78139904363099E-11
(PID.TID 0000.0001)  cg2d: iter=   113 ; resid.=  2.90361982760179E-11
(PID.TID 0000.0001)  cg2d: iter=   114 ; resid.=  2.18991688494299E-11
(PID.TID 0000.0001)  cg2d: iter=   115 ; resid.=  1.58855632002800E-11
(PID.TID 0000.0001)  cg2d: iter=   116 ; resid.=  1.15605956414833E-11
(PID.TID 0000.0001)  cg2d: iter=   117 ; resid.=  8.50717540679027E-12
(PID.TID 0000.0001)  cg2d: iter=   118 ; resid.=  6.12940939113698E-12
(PID.TID 0000.0001)  cg2d: iter=   119 ; resid.=  4.52488864151556E-12
(PID.TID 0000.0001)  cg2d: iter=   120 ; resid.=  3.50480298567410E-12
(PID.TID 0000.0001)  cg2d: iter=   121 ; resid.=  2.60321463302751E-12
(PID.TID 0000.0001)  cg2d: iter=   122 ; resid.=  1.84757298291835E-12
(PID.TID 0000.0001)  cg2d: iter=   123 ; resid.=  1.38513013536077E-12
(PID.TID 0000.0001)  cg2d: iter=   124 ; resid.=  1.13720744705477E-12
(PID.TID 0000.0001)  cg2d: iter=   125 ; resid.=  9.99902436528690E-13
(PID.TID 0000.0001)  cg2d: iter=   126 ; resid.=  8.12231404095536E-13
(PID.TID 0000.0001)  cg2d: iter=   127 ; resid.=  5.74564059273325E-13
(PID.TID 0000.0001)  cg2d: iter=   128 ; resid.=  4.17718893655998E-13
(PID.TID 0000.0001)  cg2d: iter=   129 ; resid.=  3.25292578874197E-13
(PID.TID 0000.0001)  cg2d: iter=   130 ; resid.=  2.50088957697124E-13
(PID.TID 0000.0001)  cg2d: iter=   131 ; resid.=  1.90253370066720E-13
(PID.TID 0000.0001)  cg2d: iter=   132 ; resid.=  1.31325235044377E-13
(PID.TID 0000.0001)  cg2d: iter=   133 ; resid.=  9.80596040898223E-14
DEBUG_STATS_RL:    cg2d_x (SOLVE_FOR_PRESSURE)  min= -1.69787082198047E+01
DEBUG_STATS_RL:    cg2d_x (SOLVE_FOR_PRESSURE)  max=  7.97698480929191E+00
DEBUG_STATS_RL:    cg2d_x (SOLVE_FOR_PRESSURE) mean= -1.53408055059829E+00
DEBUG_STATS_RL:    cg2d_x (SOLVE_FOR_PRESSURE) S.D.=  6.15523213056743E+00
(PID.TID 0000.0001)      cg2d_init_res =   4.35218890165861E-01
(PID.TID 0000.0001)      cg2d_iters(min,last) =      -1     133
(PID.TID 0000.0001)      cg2d_last_res =   9.80596040898223E-14
(PID.TID 0000.0001) // =======================================================
(PID.TID 0000.0001) // Begin MONITOR dynamic field statistics
(PID.TID 0000.0001) // =======================================================
(PID.TID 0000.0001) %MON time_tsnumber                =                    27
(PID.TID 0000.0001) %MON time_secondsf                =   2.3328000000000E+06
(PID.TID 0000.0001) %MON dynstat_eta_max              =   8.1314829860264E-01
(PID.TID 0000.0001) %MON dynstat_eta_min              =  -1.7307551702146E+00
(PID.TID 0000.0001) %MON dynstat_eta_mean             =  -1.9861121085232E-03
(PID.TID 0000.0001) %MON dynstat_eta_sd               =   5.3878707520935E-01
(PID.TID 0000.0001) %MON dynstat_eta_del2             =   2.0610255307213E-03
(PID.TID 0000.0001) %MON dynstat_uvel_max             =   1.1563771944741E-01
(PID.TID 0000.0001) %MON dynstat_uvel_min             =  -1.6875901848135E-01
(PID.TID 0000.0001) %MON dynstat_uvel_mean            =   9.8688606457062E-04
(PID.TID 0000.0001) %MON dynstat_uvel_sd              =   1.2749203667253E-02
(PID.TID 0000.0001) %MON dynstat_uvel_del2            =   7.9095735830828E-05
(PID.TID 0000.0001) %MON dynstat_vvel_max             =   1.2052633975100E-01
(PID.TID 0000.0001) %MON dynstat_vvel_min             =  -1.3073161567065E-01
(PID.TID 0000.0001) %MON dynstat_vvel_mean            =   8.0379638995976E-05
(PID.TID 0000.0001) %MON dynstat_vvel_sd              =   9.5110539121797E-03
(PID.TID 0000.0001) %MON dynstat_vvel_del2            =   7.8741136690499E-05
(PID.TID 0000.0001) %MON dynstat_wvel_max             =   1.1356102186103E-04
(PID.TID 0000.0001) %MON dynstat_wvel_min             =  -1.3212736198292E-04
(PID.TID 0000.0001) %MON dynstat_wvel_mean            =   2.4420941793822E-22
(PID.TID 0000.0001) %MON dynstat_wvel_sd              =   1.4506382532602E-05
(PID.TID 0000.0001) %MON dynstat_wvel_del2            =   1.6150566015284E-07
(PID.TID 0000.0001) %MON dynstat_theta_max            =   2.9930462816024E+01
(PID.TID 0000.0001) %MON dynstat_theta_min            =  -2.0100877911508E+00
(PID.TID 0000.0001) %MON dynstat_theta_mean           =   3.6308652318396E+00
(PID.TID 0000.0001) %MON dynstat_theta_sd             =   4.4168935474547E+00
(PID.TID 0000.0001) %MON dynstat_theta_del2           =   4.8493760801846E-03
(PID.TID 0000.0001) %MON dynstat_salt_max             =   3.7458445747492E+01
(PID.TID 0000.0001) %MON dynstat_salt_min             =   2.9823636085381E+01
(PID.TID 0000.0001) %MON dynstat_salt_mean            =   3.4727961053683E+01
(PID.TID 0000.0001) %MON dynstat_salt_sd              =   2.9619979349882E-01
(PID.TID 0000.0001) %MON dynstat_salt_del2            =   1.0022160047904E-03
(PID.TID 0000.0001) %MON dynstat_sst_max              =   2.9930462816024E+01
(PID.TID 0000.0001) %MON dynstat_sst_min              =  -2.0100877911508E+00
(PID.TID 0000.0001) %MON dynstat_sst_mean             =   1.8727296636900E+01
(PID.TID 0000.0001) %MON dynstat_sst_sd               =   9.0588303734531E+00
(PID.TID 0000.0001) %MON dynstat_sst_del2             =   2.6493529720589E-02
(PID.TID 0000.0001) %MON dynstat_sss_max              =   3.7441621605565E+01
(PID.TID 0000.0001) %MON dynstat_sss_min              =   2.9823636085381E+01
(PID.TID 0000.0001) %MON dynstat_sss_mean             =   3.4858349128320E+01
(PID.TID 0000.0001) %MON dynstat_sss_sd               =   9.7439984452962E-01
(PID.TID 0000.0001) %MON dynstat_sss_del2             =   7.8990787148296E-03
(PID.TID 0000.0001) %MON forcing_qnet_max             =   4.0510366312663E+02
(PID.TID 0000.0001) %MON forcing_qnet_min             =  -1.7738483479818E+02
(PID.TID 0000.0001) %MON forcing_qnet_mean            =  -1.5578525159607E+01
(PID.TID 0000.0001) %MON forcing_qnet_sd              =   9.8219108614254E+01
(PID.TID 0000.0001) %MON forcing_qnet_del2            =   9.8437596337033E-01
(PID.TID 0000.0001) %MON forcing_qsw_max              =   0.0000000000000E+00
(PID.TID 0000.0001) %MON forcing_qsw_min              =   0.0000000000000E+00
(PID.TID 0000.0001) %MON forcing_qsw_mean             =   0.0000000000000E+00
(PID.TID 0000.0001) %MON forcing_qsw_sd               =   0.0000000000000E+00
(PID.TID 0000.0001) %MON forcing_qsw_del2             =   0.0000000000000E+00
(PID.TID 0000.0001) %MON forcing_empmr_max            =   7.8719251916937E-05
(PID.TID 0000.0001) %MON forcing_empmr_min            =  -7.7032043085031E-05
(PID.TID 0000.0001) %MON forcing_empmr_mean           =   9.3044343197016E-07
(PID.TID 0000.0001) %MON forcing_empmr_sd             =   2.8310676615472E-05
(PID.TID 0000.0001) %MON forcing_empmr_del2           =   3.5708477950409E-07
(PID.TID 0000.0001) %MON forcing_fu_max               =   2.7827952206135E-01
(PID.TID 0000.0001) %MON forcing_fu_min               =  -1.8419379889965E-01
(PID.TID 0000.0001) %MON forcing_fu_mean              =   1.6599037522725E-02
(PID.TID 0000.0001) %MON forcing_fu_sd                =   8.9963961949749E-02
(PID.TID 0000.0001) %MON forcing_fu_del2              =   6.7044165395875E-04
(PID.TID 0000.0001) %MON forcing_fv_max               =   1.9782840361198E-01
(PID.TID 0000.0001) %MON forcing_fv_min               =  -1.6723260283470E-01
(PID.TID 0000.0001) %MON forcing_fv_mean              =  -5.9767677133721E-03
(PID.TID 0000.0001) %MON forcing_fv_sd                =   4.5481939075567E-02
(PID.TID 0000.0001) %MON forcing_fv_del2              =   4.6378982619852E-04
(PID.TID 0000.0001) %MON trAdv_CFL_u_max              =   3.3208328620008E-02
(PID.TID 0000.0001) %MON trAdv_CFL_v_max              =   2.6618466071936E-02
(PID.TID 0000.0001) %MON trAdv_CFL_w_max              =   4.5672495412805E-02
(PID.TID 0000.0001) %MON advcfl_uvel_max              =   3.3790905013574E-02
(PID.TID 0000.0001) %MON advcfl_vvel_max              =   2.5399056241767E-02
(PID.TID 0000.0001) %MON advcfl_wvel_max              =   4.0298308891855E-02
(PID.TID 0000.0001) %MON advcfl_W_hf_max              =   4.7494435479686E-02
(PID.TID 0000.0001) %MON pe_b_mean                    =   3.7146802743373E-04
(PID.TID 0000.0001) %MON ke_max                       =   1.3880244321445E-02
(PID.TID 0000.0001) %MON ke_mean                      =   1.1490228211569E-04
(PID.TID 0000.0001) %MON ke_vol                       =   1.3226782436723E+18
(PID.TID 0000.0001) %MON vort_r_min                   =  -2.9142369189115E-07
(PID.TID 0000.0001) %MON vort_r_max                   =   3.7483625911756E-07
(PID.TID 0000.0001) %MON vort_a_mean                  =  -2.5274807118639E-05
(PID.TID 0000.0001) %MON vort_a_sd                    =   7.3604441935766E-05
(PID.TID 0000.0001) %MON vort_p_mean                  =  -3.1845655448175E-05
(PID.TID 0000.0001) %MON vort_p_sd                    =   1.3162642808514E-04
(PID.TID 0000.0001) %MON surfExpan_theta_mean         =  -1.3156721543242E-07
(PID.TID 0000.0001) %MON surfExpan_salt_mean          =  -9.6256227550725E-09
(PID.TID 0000.0001) // =======================================================
(PID.TID 0000.0001) // End MONITOR dynamic field statistics
(PID.TID 0000.0001) // =======================================================
 EXTERNAL_FIELDS_LOAD,        27 : iP,iLd,i0,i1=    1    2    1    2 ; Wght=  0.6000000000  0.4000000000
 EXTERNAL_FIELDS_LOAD: (fu0,1),fu,fv= -3.5633E-02 -1.4435E-02 -2.7154E-02 -4.1408E-02
 EXTERNAL_FIELDS_LOAD: SST,SSS,Q,E-P=  3.6231E-01  3.4597E+01  2.5565E+02  1.0333E-05
DEBUG_STATS_RL:          Uvel (THERMODYNAMICS)  min= -1.68759018481349E-01
DEBUG_STATS_RL:          Uvel (THERMODYNAMICS)  max=  1.15637719447408E-01
DEBUG_STATS_RL:          Uvel (THERMODYNAMICS) mean=  2.41205552375996E-03
DEBUG_STATS_RL:          Uvel (THERMODYNAMICS) S.D.=  1.87487780995175E-02
DEBUG_STATS_RL:          Vvel (THERMODYNAMICS)  min= -1.30731615670647E-01
DEBUG_STATS_RL:          Vvel (THERMODYNAMICS)  max=  1.20526339751001E-01
DEBUG_STATS_RL:          Vvel (THERMODYNAMICS) mean=  1.28093032302085E-03
DEBUG_STATS_RL:          Vvel (THERMODYNAMICS) S.D.=  1.49241188967431E-02
DEBUG_STATS_RL:          Wvel (THERMODYNAMICS)  min= -1.32127361982922E-04
DEBUG_STATS_RL:          Wvel (THERMODYNAMICS)  max=  1.13561021861027E-04
DEBUG_STATS_RL:          Wvel (THERMODYNAMICS) mean=  2.21586745958829E-07
DEBUG_STATS_RL:          Wvel (THERMODYNAMICS) S.D.=  1.29906949991584E-05
DEBUG_STATS_RL:         Theta (THERMODYNAMICS)  min= -2.00935664662356E+00
DEBUG_STATS_RL:         Theta (THERMODYNAMICS)  max=  2.99458062931388E+01
DEBUG_STATS_RL:         Theta (THERMODYNAMICS) mean=  3.21873052824999E+00
DEBUG_STATS_RL:         Theta (THERMODYNAMICS) S.D.=  5.85831346933837E+00
DEBUG_STATS_RL:          Salt (THERMODYNAMICS)  min=  9.99999999999999E-03
DEBUG_STATS_RL:          Salt (THERMODYNAMICS)  max=  3.74594805962103E+01
DEBUG_STATS_RL:          Salt (THERMODYNAMICS) mean=  1.88549945968791E+01
DEBUG_STATS_RL:          Salt (THERMODYNAMICS) S.D.=  1.73004935668193E+01
DEBUG_STATS_RL:         GtNm1 (THERMODYNAMICS)  min= -4.27688984080888E-06
DEBUG_STATS_RL:         GtNm1 (THERMODYNAMICS)  max=  2.61344483512666E-06
DEBUG_STATS_RL:         GtNm1 (THERMODYNAMICS) mean=  9.05540771485102E-10
DEBUG_STATS_RL:         GtNm1 (THERMODYNAMICS) S.D.=  2.25631081518555E-07
DEBUG_STATS_RL:         GsNm1 (THERMODYNAMICS)  min= -9.02919585695834E-07
DEBUG_STATS_RL:         GsNm1 (THERMODYNAMICS)  max=  6.75288203162311E-07
DEBUG_STATS_RL:         GsNm1 (THERMODYNAMICS) mean= -6.93927431576322E-10
DEBUG_STATS_RL:         GsNm1 (THERMODYNAMICS) S.D.=  2.10561861571077E-08
DEBUG_STATS_RL:                EtaN (DYNAMICS)  min= -1.73075517021463E+00
DEBUG_STATS_RL:                EtaN (DYNAMICS)  max=  8.13148298602644E-01
DEBUG_STATS_RL:                EtaN (DYNAMICS) mean= -1.56379261019194E-01
DEBUG_STATS_RL:                EtaN (DYNAMICS) S.D.=  6.27444661627669E-01
DEBUG_STATS_RL:                Uvel (DYNAMICS)  min= -1.68759018481349E-01
DEBUG_STATS_RL:                Uvel (DYNAMICS)  max=  1.15637719447408E-01
DEBUG_STATS_RL:                Uvel (DYNAMICS) mean=  2.41205552375996E-03
DEBUG_STATS_RL:                Uvel (DYNAMICS) S.D.=  1.87487780995175E-02
DEBUG_STATS_RL:                Vvel (DYNAMICS)  min= -1.30731615670647E-01
DEBUG_STATS_RL:                Vvel (DYNAMICS)  max=  1.20526339751001E-01
DEBUG_STATS_RL:                Vvel (DYNAMICS) mean=  1.28093032302085E-03
DEBUG_STATS_RL:                Vvel (DYNAMICS) S.D.=  1.49241188967431E-02
DEBUG_STATS_RL:                Wvel (DYNAMICS)  min= -1.32127361982922E-04
DEBUG_STATS_RL:                Wvel (DYNAMICS)  max=  1.13561021861027E-04
DEBUG_STATS_RL:                Wvel (DYNAMICS) mean=  2.21586745958829E-07
DEBUG_STATS_RL:                Wvel (DYNAMICS) S.D.=  1.29906949991584E-05
DEBUG_STATS_RL:               Theta (DYNAMICS)  min= -2.00935664662356E+00
DEBUG_STATS_RL:               Theta (DYNAMICS)  max=  2.99458062931388E+01
DEBUG_STATS_RL:               Theta (DYNAMICS) mean=  3.21873052824999E+00
DEBUG_STATS_RL:               Theta (DYNAMICS) S.D.=  5.85831346933837E+00
DEBUG_STATS_RL:                Salt (DYNAMICS)  min=  9.99999999999999E-03
DEBUG_STATS_RL:                Salt (DYNAMICS)  max=  3.74594805962103E+01
DEBUG_STATS_RL:                Salt (DYNAMICS) mean=  1.88549945968791E+01
DEBUG_STATS_RL:                Salt (DYNAMICS) S.D.=  1.73004935668193E+01
DEBUG_STATS_RL:                  Gu (DYNAMICS)  min= -1.72519432279999E-01
DEBUG_STATS_RL:                  Gu (DYNAMICS)  max=  1.13953337225305E-01
DEBUG_STATS_RL:                  Gu (DYNAMICS) mean=  2.45075203339160E-03
DEBUG_STATS_RL:                  Gu (DYNAMICS) S.D.=  1.91963344537987E-02
DEBUG_STATS_RL:                  Gv (DYNAMICS)  min= -1.37095012407387E-01
DEBUG_STATS_RL:                  Gv (DYNAMICS)  max=  1.20473947034188E-01
DEBUG_STATS_RL:                  Gv (DYNAMICS) mean=  3.31407874178978E-03
DEBUG_STATS_RL:                  Gv (DYNAMICS) S.D.=  1.59424522689720E-02
DEBUG_STATS_RL:               GuNm1 (DYNAMICS)  min= -7.67267748708811E-06
DEBUG_STATS_RL:               GuNm1 (DYNAMICS)  max=  7.77312386256643E-06
DEBUG_STATS_RL:               GuNm1 (DYNAMICS) mean= -1.30598947107828E-08
DEBUG_STATS_RL:               GuNm1 (DYNAMICS) S.D.=  1.19879456311951E-06
DEBUG_STATS_RL:               GvNm1 (DYNAMICS)  min= -1.06398266041518E-05
DEBUG_STATS_RL:               GvNm1 (DYNAMICS)  max=  1.67691800478003E-05
DEBUG_STATS_RL:               GvNm1 (DYNAMICS) mean=  7.67581705944458E-07
DEBUG_STATS_RL:               GvNm1 (DYNAMICS) S.D.=  2.65048400567745E-06
DEBUG_STATS_RL:               GtNm1 (DYNAMICS)  min= -4.27688984080888E-06
DEBUG_STATS_RL:               GtNm1 (DYNAMICS)  max=  2.61344483512666E-06
DEBUG_STATS_RL:               GtNm1 (DYNAMICS) mean=  9.05540771485102E-10
DEBUG_STATS_RL:               GtNm1 (DYNAMICS) S.D.=  2.25631081518555E-07
DEBUG_STATS_RL:               GsNm1 (DYNAMICS)  min= -9.02919585695834E-07
DEBUG_STATS_RL:               GsNm1 (DYNAMICS)  max=  6.75288203162311E-07
DEBUG_STATS_RL:               GsNm1 (DYNAMICS) mean= -6.93927431576322E-10
DEBUG_STATS_RL:               GsNm1 (DYNAMICS) S.D.=  2.10561861571077E-08
DEBUG_STATS_RL:    cg2d_b (SOLVE_FOR_PRESSURE)  min= -2.25921266540228E+04
DEBUG_STATS_RL:    cg2d_b (SOLVE_FOR_PRESSURE)  max=  1.84758557205936E+04
DEBUG_STATS_RL:    cg2d_b (SOLVE_FOR_PRESSURE) mean=  1.97804134396549E+00
DEBUG_STATS_RL:    cg2d_b (SOLVE_FOR_PRESSURE) S.D.=  3.80399356618200E+03
 cg2d: Sum(rhs),rhsMax =   2.02688564091539E-01  1.48391136737700E+00
(PID.TID 0000.0001)  cg2d: iter=     1 ; resid.=  1.47077233244122E-01
(PID.TID 0000.0001)  cg2d: iter=     2 ; resid.=  1.10460688890303E-01
(PID.TID 0000.0001)  cg2d: iter=     3 ; resid.=  9.69840355252008E-02
(PID.TID 0000.0001)  cg2d: iter=     4 ; resid.=  7.85713201389256E-02
(PID.TID 0000.0001)  cg2d: iter=     5 ; resid.=  5.83291493422630E-02
(PID.TID 0000.0001)  cg2d: iter=     6 ; resid.=  4.35402895235167E-02
(PID.TID 0000.0001)  cg2d: iter=     7 ; resid.=  3.54203367847145E-02
(PID.TID 0000.0001)  cg2d: iter=     8 ; resid.=  2.77449149853364E-02
(PID.TID 0000.0001)  cg2d: iter=     9 ; resid.=  2.21124847689522E-02
(PID.TID 0000.0001)  cg2d: iter=    10 ; resid.=  1.88242914929274E-02
(PID.TID 0000.0001)  cg2d: iter=    11 ; resid.=  1.82381963429614E-02
(PID.TID 0000.0001)  cg2d: iter=    12 ; resid.=  1.64951487355299E-02
(PID.TID 0000.0001)  cg2d: iter=    13 ; resid.=  1.48425268976248E-02
(PID.TID 0000.0001)  cg2d: iter=    14 ; resid.=  1.20514824939022E-02
(PID.TID 0000.0001)  cg2d: iter=    15 ; resid.=  9.85795842693264E-03
(PID.TID 0000.0001)  cg2d: iter=    16 ; resid.=  8.28294393071605E-03
(PID.TID 0000.0001)  cg2d: iter=    17 ; resid.=  7.11687937628474E-03
(PID.TID 0000.0001)  cg2d: iter=    18 ; resid.=  5.96351383284629E-03
(PID.TID 0000.0001)  cg2d: iter=    19 ; resid.=  4.75137697246981E-03
(PID.TID 0000.0001)  cg2d: iter=    20 ; resid.=  3.72932215037911E-03
(PID.TID 0000.0001)  cg2d: iter=    21 ; resid.=  3.03380150009357E-03
(PID.TID 0000.0001)  cg2d: iter=    22 ; resid.=  2.55934446380256E-03
(PID.TID 0000.0001)  cg2d: iter=    23 ; resid.=  2.22694083425611E-03
(PID.TID 0000.0001)  cg2d: iter=    24 ; resid.=  1.91998288816957E-03
(PID.TID 0000.0001)  cg2d: iter=    25 ; resid.=  1.44723761048857E-03
(PID.TID 0000.0001)  cg2d: iter=    26 ; resid.=  1.12377659424593E-03
(PID.TID 0000.0001)  cg2d: iter=    27 ; resid.=  9.37854335170589E-04
(PID.TID 0000.0001)  cg2d: iter=    28 ; resid.=  7.79458087821909E-04
(PID.TID 0000.0001)  cg2d: iter=    29 ; resid.=  6.20002987355974E-04
(PID.TID 0000.0001)  cg2d: iter=    30 ; resid.=  4.70710714797647E-04
(PID.TID 0000.0001)  cg2d: iter=    31 ; resid.=  3.89972380647933E-04
(PID.TID 0000.0001)  cg2d: iter=    32 ; resid.=  3.22080994023707E-04
(PID.TID 0000.0001)  cg2d: iter=    33 ; resid.=  2.56245447894347E-04
(PID.TID 0000.0001)  cg2d: iter=    34 ; resid.=  2.11418692347208E-04
(PID.TID 0000.0001)  cg2d: iter=    35 ; resid.=  1.73767041775881E-04
(PID.TID 0000.0001)  cg2d: iter=    36 ; resid.=  1.44120850883162E-04
(PID.TID 0000.0001)  cg2d: iter=    37 ; resid.=  1.27875326869667E-04
(PID.TID 0000.0001)  cg2d: iter=    38 ; resid.=  1.13088157821301E-04
(PID.TID 0000.0001)  cg2d: iter=    39 ; resid.=  9.14152774289810E-05
(PID.TID 0000.0001)  cg2d: iter=    40 ; resid.=  7.04546583061882E-05
(PID.TID 0000.0001)  cg2d: iter=    41 ; resid.=  5.49270346943289E-05
(PID.TID 0000.0001)  cg2d: iter=    42 ; resid.=  4.66987861203168E-05
(PID.TID 0000.0001)  cg2d: iter=    43 ; resid.=  3.89566993364874E-05
(PID.TID 0000.0001)  cg2d: iter=    44 ; resid.=  3.17593961067613E-05
(PID.TID 0000.0001)  cg2d: iter=    45 ; resid.=  2.81716965975583E-05
(PID.TID 0000.0001)  cg2d: iter=    46 ; resid.=  2.42440127010875E-05
(PID.TID 0000.0001)  cg2d: iter=    47 ; resid.=  2.17658332447734E-05
(PID.TID 0000.0001)  cg2d: iter=    48 ; resid.=  2.03246702743073E-05
(PID.TID 0000.0001)  cg2d: iter=    49 ; resid.=  1.76307458447023E-05
(PID.TID 0000.0001)  cg2d: iter=    50 ; resid.=  1.43534362226222E-05
(PID.TID 0000.0001)  cg2d: iter=    51 ; resid.=  1.18578598887378E-05
(PID.TID 0000.0001)  cg2d: iter=    52 ; resid.=  9.80576320560494E-06
(PID.TID 0000.0001)  cg2d: iter=    53 ; resid.=  8.36943539989487E-06
(PID.TID 0000.0001)  cg2d: iter=    54 ; resid.=  7.06962324246181E-06
(PID.TID 0000.0001)  cg2d: iter=    55 ; resid.=  5.65325074042574E-06
(PID.TID 0000.0001)  cg2d: iter=    56 ; resid.=  4.95838204860725E-06
(PID.TID 0000.0001)  cg2d: iter=    57 ; resid.=  4.17435215902834E-06
(PID.TID 0000.0001)  cg2d: iter=    58 ; resid.=  3.37451141536113E-06
(PID.TID 0000.0001)  cg2d: iter=    59 ; resid.=  2.74681556299113E-06
(PID.TID 0000.0001)  cg2d: iter=    60 ; resid.=  2.24473097668899E-06
(PID.TID 0000.0001)  cg2d: iter=    61 ; resid.=  1.87286665598809E-06
(PID.TID 0000.0001)  cg2d: iter=    62 ; resid.=  1.56692745688851E-06
(PID.TID 0000.0001)  cg2d: iter=    63 ; resid.=  1.24889790012838E-06
(PID.TID 0000.0001)  cg2d: iter=    64 ; resid.=  1.00807130387345E-06
(PID.TID 0000.0001)  cg2d: iter=    65 ; resid.=  8.01197508967610E-07
(PID.TID 0000.0001)  cg2d: iter=    66 ; resid.=  6.02997857006132E-07
(PID.TID 0000.0001)  cg2d: iter=    67 ; resid.=  4.87780047437649E-07
(PID.TID 0000.0001)  cg2d: iter=    68 ; resid.=  4.05846376595289E-07
(PID.TID 0000.0001)  cg2d: iter=    69 ; resid.=  3.30049464998928E-07
(PID.TID 0000.0001)  cg2d: iter=    70 ; resid.=  2.81337407443046E-07
(PID.TID 0000.0001)  cg2d: iter=    71 ; resid.=  2.35885473475601E-07
(PID.TID 0000.0001)  cg2d: iter=    72 ; resid.=  1.91317661953394E-07
(PID.TID 0000.0001)  cg2d: iter=    73 ; resid.=  1.68109682165763E-07
(PID.TID 0000.0001)  cg2d: iter=    74 ; resid.=  1.44267825276007E-07
(PID.TID 0000.0001)  cg2d: iter=    75 ; resid.=  1.09778211352621E-07
(PID.TID 0000.0001)  cg2d: iter=    76 ; resid.=  8.36744088814407E-08
(PID.TID 0000.0001)  cg2d: iter=    77 ; resid.=  7.02510915706969E-08
(PID.TID 0000.0001)  cg2d: iter=    78 ; resid.=  5.27343403368279E-08
(PID.TID 0000.0001)  cg2d: iter=    79 ; resid.=  4.25926607481719E-08
(PID.TID 0000.0001)  cg2d: iter=    80 ; resid.=  3.46955922528544E-08
(PID.TID 0000.0001)  cg2d: iter=    81 ; resid.=  3.09589758429906E-08
(PID.TID 0000.0001)  cg2d: iter=    82 ; resid.=  2.84926578867103E-08
(PID.TID 0000.0001)  cg2d: iter=    83 ; resid.=  2.43970517616143E-08
(PID.TID 0000.0001)  cg2d: iter=    84 ; resid.=  2.11367446153381E-08
(PID.TID 0000.0001)  cg2d: iter=    85 ; resid.=  1.79922968731356E-08
(PID.TID 0000.0001)  cg2d: iter=    86 ; resid.=  1.38257328816396E-08
(PID.TID 0000.0001)  cg2d: iter=    87 ; resid.=  1.02115885728405E-08
(PID.TID 0000.0001)  cg2d: iter=    88 ; resid.=  8.39566380748277E-09
(PID.TID 0000.0001)  cg2d: iter=    89 ; resid.=  7.16678622127066E-09
(PID.TID 0000.0001)  cg2d: iter=    90 ; resid.=  5.79199423769913E-09
(PID.TID 0000.0001)  cg2d: iter=    91 ; resid.=  4.45500023019529E-09
(PID.TID 0000.0001)  cg2d: iter=    92 ; resid.=  3.25269064974206E-09
(PID.TID 0000.0001)  cg2d: iter=    93 ; resid.=  2.38589058692978E-09
(PID.TID 0000.0001)  cg2d: iter=    94 ; resid.=  1.79719018753604E-09
(PID.TID 0000.0001)  cg2d: iter=    95 ; resid.=  1.38313511953274E-09
(PID.TID 0000.0001)  cg2d: iter=    96 ; resid.=  1.03610689931589E-09
(PID.TID 0000.0001)  cg2d: iter=    97 ; resid.=  7.70468623817267E-10
(PID.TID 0000.0001)  cg2d: iter=    98 ; resid.=  6.12468973896986E-10
(PID.TID 0000.0001)  cg2d: iter=    99 ; resid.=  4.97076471557855E-10
(PID.TID 0000.0001)  cg2d: iter=   100 ; resid.=  4.17830149424433E-10
(PID.TID 0000.0001)  cg2d: iter=   101 ; resid.=  3.31475575898137E-10
(PID.TID 0000.0001)  cg2d: iter=   102 ; resid.=  2.57404445624855E-10
(PID.TID 0000.0001)  cg2d: iter=   103 ; resid.=  1.86564292726296E-10
(PID.TID 0000.0001)  cg2d: iter=   104 ; resid.=  1.36857676960421E-10
(PID.TID 0000.0001)  cg2d: iter=   105 ; resid.=  9.76995256672448E-11
(PID.TID 0000.0001)  cg2d: iter=   106 ; resid.=  7.39385307453595E-11
(PID.TID 0000.0001)  cg2d: iter=   107 ; resid.=  5.97932590856114E-11
(PID.TID 0000.0001)  cg2d: iter=   108 ; resid.=  4.97873082155991E-11
(PID.TID 0000.0001)  cg2d: iter=   109 ; resid.=  4.28760052878365E-11
(PID.TID 0000.0001)  cg2d: iter=   110 ; resid.=  3.68016180359969E-11
(PID.TID 0000.0001)  cg2d: iter=   111 ; resid.=  3.16587580948039E-11
(PID.TID 0000.0001)  cg2d: iter=   112 ; resid.=  2.94611806928530E-11
(PID.TID 0000.0001)  cg2d: iter=   113 ; resid.=  2.41461179110021E-11
(PID.TID 0000.0001)  cg2d: iter=   114 ; resid.=  1.98688769716308E-11
(PID.TID 0000.0001)  cg2d: iter=   115 ; resid.=  1.56416562033334E-11
(PID.TID 0000.0001)  cg2d: iter=   116 ; resid.=  1.18682311494712E-11
(PID.TID 0000.0001)  cg2d: iter=   117 ; resid.=  8.75902013483323E-12
(PID.TID 0000.0001)  cg2d: iter=   118 ; resid.=  6.31758820690503E-12
(PID.TID 0000.0001)  cg2d: iter=   119 ; resid.=  4.65853259878543E-12
(PID.TID 0000.0001)  cg2d: iter=   120 ; resid.=  3.54492504749976E-12
(PID.TID 0000.0001)  cg2d: iter=   121 ; resid.=  2.53444579965522E-12
(PID.TID 0000.0001)  cg2d: iter=   122 ; resid.=  1.68944692125097E-12
(PID.TID 0000.0001)  cg2d: iter=   123 ; resid.=  1.21542068291015E-12
(PID.TID 0000.0001)  cg2d: iter=   124 ; resid.=  9.82047936730087E-13
(PID.TID 0000.0001)  cg2d: iter=   125 ; resid.=  8.69125777321877E-13
(PID.TID 0000.0001)  cg2d: iter=   126 ; resid.=  7.00819964525952E-13
(PID.TID 0000.0001)  cg2d: iter=   127 ; resid.=  4.93014177139996E-13
(PID.TID 0000.0001)  cg2d: iter=   128 ; resid.=  3.65676035095756E-13
(PID.TID 0000.0001)  cg2d: iter=   129 ; resid.=  2.95718116041544E-13
(PID.TID 0000.0001)  cg2d: iter=   130 ; resid.=  2.29961581258356E-13
(PID.TID 0000.0001)  cg2d: iter=   131 ; resid.=  1.80362032822679E-13
(PID.TID 0000.0001)  cg2d: iter=   132 ; resid.=  1.30816986022290E-13
(PID.TID 0000.0001)  cg2d: iter=   133 ; resid.=  1.00168207826653E-13
(PID.TID 0000.0001)  cg2d: iter=   134 ; resid.=  7.50865018000700E-14
DEBUG_STATS_RL:    cg2d_x (SOLVE_FOR_PRESSURE)  min= -1.69967845926691E+01
DEBUG_STATS_RL:    cg2d_x (SOLVE_FOR_PRESSURE)  max=  8.03018892971662E+00
DEBUG_STATS_RL:    cg2d_x (SOLVE_FOR_PRESSURE) mean= -1.53493600943132E+00
DEBUG_STATS_RL:    cg2d_x (SOLVE_FOR_PRESSURE) S.D.=  6.17137406753201E+00
(PID.TID 0000.0001)      cg2d_init_res =   4.36383779450634E-01
(PID.TID 0000.0001)      cg2d_iters(min,last) =      -1     134
(PID.TID 0000.0001)      cg2d_last_res =   7.50865018000700E-14
(PID.TID 0000.0001) // =======================================================
(PID.TID 0000.0001) // Begin MONITOR dynamic field statistics
(PID.TID 0000.0001) // =======================================================
(PID.TID 0000.0001) %MON time_tsnumber                =                    28
(PID.TID 0000.0001) %MON time_secondsf                =   2.4192000000000E+06
(PID.TID 0000.0001) %MON dynstat_eta_max              =   8.1857175634216E-01
(PID.TID 0000.0001) %MON dynstat_eta_min              =  -1.7325978178052E+00
(PID.TID 0000.0001) %MON dynstat_eta_mean             =  -2.0638408733981E-03
(PID.TID 0000.0001) %MON dynstat_eta_sd               =   5.4024676843074E-01
(PID.TID 0000.0001) %MON dynstat_eta_del2             =   2.0875658353901E-03
(PID.TID 0000.0001) %MON dynstat_uvel_max             =   1.1166846166569E-01
(PID.TID 0000.0001) %MON dynstat_uvel_min             =  -1.7106394470658E-01
(PID.TID 0000.0001) %MON dynstat_uvel_mean            =   1.2250065356564E-03
(PID.TID 0000.0001) %MON dynstat_uvel_sd              =   1.2764122672961E-02
(PID.TID 0000.0001) %MON dynstat_uvel_del2            =   7.8157512727424E-05
(PID.TID 0000.0001) %MON dynstat_vvel_max             =   1.1965744707290E-01
(PID.TID 0000.0001) %MON dynstat_vvel_min             =  -1.2926354754268E-01
(PID.TID 0000.0001) %MON dynstat_vvel_mean            =   3.8554976846033E-05
(PID.TID 0000.0001) %MON dynstat_vvel_sd              =   9.2615521084077E-03
(PID.TID 0000.0001) %MON dynstat_vvel_del2            =   7.7017934693896E-05
(PID.TID 0000.0001) %MON dynstat_wvel_max             =   1.1114892344217E-04
(PID.TID 0000.0001) %MON dynstat_wvel_min             =  -1.2760255825947E-04
(PID.TID 0000.0001) %MON dynstat_wvel_mean            =   8.4728993130815E-23
(PID.TID 0000.0001) %MON dynstat_wvel_sd              =   1.4125258792349E-05
(PID.TID 0000.0001) %MON dynstat_wvel_del2            =   1.6095538617251E-07
(PID.TID 0000.0001) %MON dynstat_theta_max            =   2.9945806293139E+01
(PID.TID 0000.0001) %MON dynstat_theta_min            =  -2.0093566466236E+00
(PID.TID 0000.0001) %MON dynstat_theta_mean           =   3.6309534215441E+00
(PID.TID 0000.0001) %MON dynstat_theta_sd             =   4.4170611762237E+00
(PID.TID 0000.0001) %MON dynstat_theta_del2           =   4.8485786126856E-03
(PID.TID 0000.0001) %MON dynstat_salt_max             =   3.7459480596210E+01
(PID.TID 0000.0001) %MON dynstat_salt_min             =   2.9827102098750E+01
(PID.TID 0000.0001) %MON dynstat_salt_mean            =   3.4727962675476E+01
(PID.TID 0000.0001) %MON dynstat_salt_sd              =   2.9620355933063E-01
(PID.TID 0000.0001) %MON dynstat_salt_del2            =   1.0006180652737E-03
(PID.TID 0000.0001) %MON dynstat_sst_max              =   2.9945806293139E+01
(PID.TID 0000.0001) %MON dynstat_sst_min              =  -2.0093566466236E+00
(PID.TID 0000.0001) %MON dynstat_sst_mean             =   1.8733215125449E+01
(PID.TID 0000.0001) %MON dynstat_sst_sd               =   9.0573247609594E+00
(PID.TID 0000.0001) %MON dynstat_sst_del2             =   2.6542603504795E-02
(PID.TID 0000.0001) %MON dynstat_sss_max              =   3.7441849894099E+01
(PID.TID 0000.0001) %MON dynstat_sss_min              =   2.9827102098750E+01
(PID.TID 0000.0001) %MON dynstat_sss_mean             =   3.4857789225522E+01
(PID.TID 0000.0001) %MON dynstat_sss_sd               =   9.7470581520722E-01
(PID.TID 0000.0001) %MON dynstat_sss_del2             =   7.8838833682341E-03
(PID.TID 0000.0001) %MON forcing_qnet_max             =   4.0178457641602E+02
(PID.TID 0000.0001) %MON forcing_qnet_min             =  -1.7714531555176E+02
(PID.TID 0000.0001) %MON forcing_qnet_mean            =  -1.5493615992204E+01
(PID.TID 0000.0001) %MON forcing_qnet_sd              =   9.7185485181804E+01
(PID.TID 0000.0001) %MON forcing_qnet_del2            =   9.8140782401500E-01
(PID.TID 0000.0001) %MON forcing_qsw_max              =   0.0000000000000E+00
(PID.TID 0000.0001) %MON forcing_qsw_min              =   0.0000000000000E+00
(PID.TID 0000.0001) %MON forcing_qsw_mean             =   0.0000000000000E+00
(PID.TID 0000.0001) %MON forcing_qsw_sd               =   0.0000000000000E+00
(PID.TID 0000.0001) %MON forcing_qsw_del2             =   0.0000000000000E+00
(PID.TID 0000.0001) %MON forcing_empmr_max            =   7.8405162184936E-05
(PID.TID 0000.0001) %MON forcing_empmr_min            =  -7.7111687346587E-05
(PID.TID 0000.0001) %MON forcing_empmr_mean           =   9.3112582923013E-07
(PID.TID 0000.0001) %MON forcing_empmr_sd             =   2.8276845244070E-05
(PID.TID 0000.0001) %MON forcing_empmr_del2           =   3.5648229163624E-07
(PID.TID 0000.0001) %MON forcing_fu_max               =   2.7966668009758E-01
(PID.TID 0000.0001) %MON forcing_fu_min               =  -1.8585372269154E-01
(PID.TID 0000.0001) %MON forcing_fu_mean              =   1.6653337738194E-02
(PID.TID 0000.0001) %MON forcing_fu_sd                =   8.9968991920605E-02
(PID.TID 0000.0001) %MON forcing_fu_del2              =   6.6906282054806E-04
(PID.TID 0000.0001) %MON forcing_fv_max               =   1.9461995661259E-01
(PID.TID 0000.0001) %MON forcing_fv_min               =  -1.6624130308628E-01
(PID.TID 0000.0001) %MON forcing_fv_mean              =  -6.0420286200872E-03
(PID.TID 0000.0001) %MON forcing_fv_sd                =   4.5317127835513E-02
(PID.TID 0000.0001) %MON forcing_fv_del2              =   4.6354194610910E-04
(PID.TID 0000.0001) %MON trAdv_CFL_u_max              =   3.3797768188059E-02
(PID.TID 0000.0001) %MON trAdv_CFL_v_max              =   2.6081422806515E-02
(PID.TID 0000.0001) %MON trAdv_CFL_w_max              =   4.5477759475661E-02
(PID.TID 0000.0001) %MON advcfl_uvel_max              =   3.4252424308016E-02
(PID.TID 0000.0001) %MON advcfl_vvel_max              =   2.5113834149485E-02
(PID.TID 0000.0001) %MON advcfl_wvel_max              =   3.9858520365152E-02
(PID.TID 0000.0001) %MON advcfl_W_hf_max              =   4.6976113287501E-02
(PID.TID 0000.0001) %MON pe_b_mean                    =   3.7348390730820E-04
(PID.TID 0000.0001) %MON ke_max                       =   1.4214327707447E-02
(PID.TID 0000.0001) %MON ke_mean                      =   1.1320950005798E-04
(PID.TID 0000.0001) %MON ke_vol                       =   1.3226782436723E+18
(PID.TID 0000.0001) %MON vort_r_min                   =  -2.8584462918572E-07
(PID.TID 0000.0001) %MON vort_r_max                   =   3.8743739424200E-07
(PID.TID 0000.0001) %MON vort_a_mean                  =  -2.5274807244348E-05
(PID.TID 0000.0001) %MON vort_a_sd                    =   7.3604474981475E-05
(PID.TID 0000.0001) %MON vort_p_mean                  =  -3.1845655606566E-05
(PID.TID 0000.0001) %MON vort_p_sd                    =   1.3162655710647E-04
(PID.TID 0000.0001) %MON surfExpan_theta_mean         =  -2.6831585055462E-08
(PID.TID 0000.0001) %MON surfExpan_salt_mean          =  -3.8446728968866E-08
(PID.TID 0000.0001) // =======================================================
(PID.TID 0000.0001) // End MONITOR dynamic field statistics
(PID.TID 0000.0001) // =======================================================
 EXTERNAL_FIELDS_LOAD,        28 : iP,iLd,i0,i1=    1    2    1    2 ; Wght=  0.5666666667  0.4333333333
 EXTERNAL_FIELDS_LOAD: (fu0,1),fu,fv= -3.5633E-02 -1.4435E-02 -2.6447E-02 -4.0088E-02
 EXTERNAL_FIELDS_LOAD: SST,SSS,Q,E-P=  3.1264E-01  3.4587E+01  2.5481E+02  1.0224E-05
DEBUG_STATS_RL:          Uvel (THERMODYNAMICS)  min= -1.71063944706581E-01
DEBUG_STATS_RL:          Uvel (THERMODYNAMICS)  max=  1.11668461665695E-01
DEBUG_STATS_RL:          Uvel (THERMODYNAMICS) mean=  2.45070913768846E-03
DEBUG_STATS_RL:          Uvel (THERMODYNAMICS) S.D.=  1.87514976122421E-02
DEBUG_STATS_RL:          Vvel (THERMODYNAMICS)  min= -1.29263547542683E-01
DEBUG_STATS_RL:          Vvel (THERMODYNAMICS)  max=  1.19657447072902E-01
DEBUG_STATS_RL:          Vvel (THERMODYNAMICS) mean=  1.01311188195670E-03
DEBUG_STATS_RL:          Vvel (THERMODYNAMICS) S.D.=  1.43868063183827E-02
DEBUG_STATS_RL:          Wvel (THERMODYNAMICS)  min= -1.27602558259473E-04
DEBUG_STATS_RL:          Wvel (THERMODYNAMICS)  max=  1.11148923442167E-04
DEBUG_STATS_RL:          Wvel (THERMODYNAMICS) mean=  1.40906524740326E-07
DEBUG_STATS_RL:          Wvel (THERMODYNAMICS) S.D.=  1.26638816734258E-05
DEBUG_STATS_RL:         Theta (THERMODYNAMICS)  min= -2.00858296222897E+00
DEBUG_STATS_RL:         Theta (THERMODYNAMICS)  max=  2.99619976444956E+01
DEBUG_STATS_RL:         Theta (THERMODYNAMICS) mean=  3.21884067693645E+00
DEBUG_STATS_RL:         Theta (THERMODYNAMICS) S.D.=  5.85846648814136E+00
DEBUG_STATS_RL:          Salt (THERMODYNAMICS)  min=  9.99999999999999E-03
DEBUG_STATS_RL:          Salt (THERMODYNAMICS)  max=  3.74604706114606E+01
DEBUG_STATS_RL:          Salt (THERMODYNAMICS) mean=  1.88549640216336E+01
DEBUG_STATS_RL:          Salt (THERMODYNAMICS) S.D.=  1.73004658316926E+01
DEBUG_STATS_RL:         GtNm1 (THERMODYNAMICS)  min= -4.18313507514976E-06
DEBUG_STATS_RL:         GtNm1 (THERMODYNAMICS)  max=  2.58174844346956E-06
DEBUG_STATS_RL:         GtNm1 (THERMODYNAMICS) mean=  2.05651864271979E-09
DEBUG_STATS_RL:         GtNm1 (THERMODYNAMICS) S.D.=  2.21324863085219E-07
DEBUG_STATS_RL:         GsNm1 (THERMODYNAMICS)  min= -8.78315392640175E-07
DEBUG_STATS_RL:         GsNm1 (THERMODYNAMICS)  max=  6.51706619272975E-07
DEBUG_STATS_RL:         GsNm1 (THERMODYNAMICS) mean= -6.92409601712593E-10
DEBUG_STATS_RL:         GsNm1 (THERMODYNAMICS) S.D.=  2.04746520716543E-08
DEBUG_STATS_RL:                EtaN (DYNAMICS)  min= -1.73259781780516E+00
DEBUG_STATS_RL:                EtaN (DYNAMICS)  max=  8.18571756342156E-01
DEBUG_STATS_RL:                EtaN (DYNAMICS) mean= -1.56466463754467E-01
DEBUG_STATS_RL:                EtaN (DYNAMICS) S.D.=  6.29090119014476E-01
DEBUG_STATS_RL:                Uvel (DYNAMICS)  min= -1.71063944706581E-01
DEBUG_STATS_RL:                Uvel (DYNAMICS)  max=  1.11668461665695E-01
DEBUG_STATS_RL:                Uvel (DYNAMICS) mean=  2.45070913768846E-03
DEBUG_STATS_RL:                Uvel (DYNAMICS) S.D.=  1.87514976122421E-02
DEBUG_STATS_RL:                Vvel (DYNAMICS)  min= -1.29263547542683E-01
DEBUG_STATS_RL:                Vvel (DYNAMICS)  max=  1.19657447072902E-01
DEBUG_STATS_RL:                Vvel (DYNAMICS) mean=  1.01311188195670E-03
DEBUG_STATS_RL:                Vvel (DYNAMICS) S.D.=  1.43868063183827E-02
DEBUG_STATS_RL:                Wvel (DYNAMICS)  min= -1.27602558259473E-04
DEBUG_STATS_RL:                Wvel (DYNAMICS)  max=  1.11148923442167E-04
DEBUG_STATS_RL:                Wvel (DYNAMICS) mean=  1.40906524740326E-07
DEBUG_STATS_RL:                Wvel (DYNAMICS) S.D.=  1.26638816734258E-05
DEBUG_STATS_RL:               Theta (DYNAMICS)  min= -2.00858296222897E+00
DEBUG_STATS_RL:               Theta (DYNAMICS)  max=  2.99619976444956E+01
DEBUG_STATS_RL:               Theta (DYNAMICS) mean=  3.21884067693645E+00
DEBUG_STATS_RL:               Theta (DYNAMICS) S.D.=  5.85846648814136E+00
DEBUG_STATS_RL:                Salt (DYNAMICS)  min=  9.99999999999999E-03
DEBUG_STATS_RL:                Salt (DYNAMICS)  max=  3.74604706114606E+01
DEBUG_STATS_RL:                Salt (DYNAMICS) mean=  1.88549640216336E+01
DEBUG_STATS_RL:                Salt (DYNAMICS) S.D.=  1.73004658316926E+01
DEBUG_STATS_RL:                  Gu (DYNAMICS)  min= -1.74221941033684E-01
DEBUG_STATS_RL:                  Gu (DYNAMICS)  max=  1.09696021453189E-01
DEBUG_STATS_RL:                  Gu (DYNAMICS) mean=  2.50292590658179E-03
DEBUG_STATS_RL:                  Gu (DYNAMICS) S.D.=  1.92969745966688E-02
DEBUG_STATS_RL:                  Gv (DYNAMICS)  min= -1.34908941632004E-01
DEBUG_STATS_RL:                  Gv (DYNAMICS)  max=  1.12939207193407E-01
DEBUG_STATS_RL:                  Gv (DYNAMICS) mean=  3.06474813344051E-03
DEBUG_STATS_RL:                  Gv (DYNAMICS) S.D.=  1.53041777190870E-02
DEBUG_STATS_RL:               GuNm1 (DYNAMICS)  min= -7.76213604729556E-06
DEBUG_STATS_RL:               GuNm1 (DYNAMICS)  max=  7.68924531311324E-06
DEBUG_STATS_RL:               GuNm1 (DYNAMICS) mean= -1.42745450102244E-08
DEBUG_STATS_RL:               GuNm1 (DYNAMICS) S.D.=  1.20044891864937E-06
DEBUG_STATS_RL:               GvNm1 (DYNAMICS)  min= -1.07431621744521E-05
DEBUG_STATS_RL:               GvNm1 (DYNAMICS)  max=  1.67189161934326E-05
DEBUG_STATS_RL:               GvNm1 (DYNAMICS) mean=  7.66030160194744E-07
DEBUG_STATS_RL:               GvNm1 (DYNAMICS) S.D.=  2.65395090066801E-06
DEBUG_STATS_RL:               GtNm1 (DYNAMICS)  min= -4.18313507514976E-06
DEBUG_STATS_RL:               GtNm1 (DYNAMICS)  max=  2.58174844346956E-06
DEBUG_STATS_RL:               GtNm1 (DYNAMICS) mean=  2.05651864271979E-09
DEBUG_STATS_RL:               GtNm1 (DYNAMICS) S.D.=  2.21324863085219E-07
DEBUG_STATS_RL:               GsNm1 (DYNAMICS)  min= -8.78315392640175E-07
DEBUG_STATS_RL:               GsNm1 (DYNAMICS)  max=  6.51706619272975E-07
DEBUG_STATS_RL:               GsNm1 (DYNAMICS) mean= -6.92409601712593E-10
DEBUG_STATS_RL:               GsNm1 (DYNAMICS) S.D.=  2.04746520716543E-08
DEBUG_STATS_RL:    cg2d_b (SOLVE_FOR_PRESSURE)  min= -2.20973407300676E+04
DEBUG_STATS_RL:    cg2d_b (SOLVE_FOR_PRESSURE)  max=  1.85525491666471E+04
DEBUG_STATS_RL:    cg2d_b (SOLVE_FOR_PRESSURE) mean=  2.05259330788418E+00
DEBUG_STATS_RL:    cg2d_b (SOLVE_FOR_PRESSURE) S.D.=  3.81968536907441E+03
 cg2d: Sum(rhs),rhsMax =   2.15037346158384E-01  1.45141250313907E+00
(PID.TID 0000.0001)  cg2d: iter=     1 ; resid.=  1.50532508174877E-01
(PID.TID 0000.0001)  cg2d: iter=     2 ; resid.=  1.17649175788792E-01
(PID.TID 0000.0001)  cg2d: iter=     3 ; resid.=  1.04496423708892E-01
(PID.TID 0000.0001)  cg2d: iter=     4 ; resid.=  8.51980218783124E-02
(PID.TID 0000.0001)  cg2d: iter=     5 ; resid.=  6.68730332265593E-02
(PID.TID 0000.0001)  cg2d: iter=     6 ; resid.=  5.44151613637395E-02
(PID.TID 0000.0001)  cg2d: iter=     7 ; resid.=  4.74929909479162E-02
(PID.TID 0000.0001)  cg2d: iter=     8 ; resid.=  3.66619582606563E-02
(PID.TID 0000.0001)  cg2d: iter=     9 ; resid.=  2.90232119113067E-02
(PID.TID 0000.0001)  cg2d: iter=    10 ; resid.=  2.47812105027391E-02
(PID.TID 0000.0001)  cg2d: iter=    11 ; resid.=  2.29793151401523E-02
(PID.TID 0000.0001)  cg2d: iter=    12 ; resid.=  1.95768097125156E-02
(PID.TID 0000.0001)  cg2d: iter=    13 ; resid.=  1.65109627887889E-02
(PID.TID 0000.0001)  cg2d: iter=    14 ; resid.=  1.26503495254170E-02
(PID.TID 0000.0001)  cg2d: iter=    15 ; resid.=  9.98850193868890E-03
(PID.TID 0000.0001)  cg2d: iter=    16 ; resid.=  8.38979647148232E-03
(PID.TID 0000.0001)  cg2d: iter=    17 ; resid.=  7.16452981385471E-03
(PID.TID 0000.0001)  cg2d: iter=    18 ; resid.=  6.10725744052427E-03
(PID.TID 0000.0001)  cg2d: iter=    19 ; resid.=  4.98587953780636E-03
(PID.TID 0000.0001)  cg2d: iter=    20 ; resid.=  4.02215404408993E-03
(PID.TID 0000.0001)  cg2d: iter=    21 ; resid.=  3.34410210814144E-03
(PID.TID 0000.0001)  cg2d: iter=    22 ; resid.=  2.93093712895734E-03
(PID.TID 0000.0001)  cg2d: iter=    23 ; resid.=  2.63482895220929E-03
(PID.TID 0000.0001)  cg2d: iter=    24 ; resid.=  2.25228368358834E-03
(PID.TID 0000.0001)  cg2d: iter=    25 ; resid.=  1.70071659758988E-03
(PID.TID 0000.0001)  cg2d: iter=    26 ; resid.=  1.36398716144124E-03
(PID.TID 0000.0001)  cg2d: iter=    27 ; resid.=  1.16505407409763E-03
(PID.TID 0000.0001)  cg2d: iter=    28 ; resid.=  9.77913374350384E-04
(PID.TID 0000.0001)  cg2d: iter=    29 ; resid.=  8.02074221551863E-04
(PID.TID 0000.0001)  cg2d: iter=    30 ; resid.=  6.31791716803617E-04
(PID.TID 0000.0001)  cg2d: iter=    31 ; resid.=  5.32802142281853E-04
(PID.TID 0000.0001)  cg2d: iter=    32 ; resid.=  4.38189882138633E-04
(PID.TID 0000.0001)  cg2d: iter=    33 ; resid.=  3.49172046890949E-04
(PID.TID 0000.0001)  cg2d: iter=    34 ; resid.=  2.81254167249014E-04
(PID.TID 0000.0001)  cg2d: iter=    35 ; resid.=  2.23073070467390E-04
(PID.TID 0000.0001)  cg2d: iter=    36 ; resid.=  1.78389323050560E-04
(PID.TID 0000.0001)  cg2d: iter=    37 ; resid.=  1.50785175255073E-04
(PID.TID 0000.0001)  cg2d: iter=    38 ; resid.=  1.26044951190190E-04
(PID.TID 0000.0001)  cg2d: iter=    39 ; resid.=  9.89049583849806E-05
(PID.TID 0000.0001)  cg2d: iter=    40 ; resid.=  7.43139555326832E-05
(PID.TID 0000.0001)  cg2d: iter=    41 ; resid.=  5.79075690812684E-05
(PID.TID 0000.0001)  cg2d: iter=    42 ; resid.=  5.08432305284463E-05
(PID.TID 0000.0001)  cg2d: iter=    43 ; resid.=  4.34781525607767E-05
(PID.TID 0000.0001)  cg2d: iter=    44 ; resid.=  3.55704058646223E-05
(PID.TID 0000.0001)  cg2d: iter=    45 ; resid.=  3.15133397643616E-05
(PID.TID 0000.0001)  cg2d: iter=    46 ; resid.=  2.68572121289424E-05
(PID.TID 0000.0001)  cg2d: iter=    47 ; resid.=  2.31040680049669E-05
(PID.TID 0000.0001)  cg2d: iter=    48 ; resid.=  1.99943387953068E-05
(PID.TID 0000.0001)  cg2d: iter=    49 ; resid.=  1.60732198262477E-05
(PID.TID 0000.0001)  cg2d: iter=    50 ; resid.=  1.20531755238045E-05
(PID.TID 0000.0001)  cg2d: iter=    51 ; resid.=  9.51788692126629E-06
(PID.TID 0000.0001)  cg2d: iter=    52 ; resid.=  7.58983566034531E-06
(PID.TID 0000.0001)  cg2d: iter=    53 ; resid.=  6.12283871342618E-06
(PID.TID 0000.0001)  cg2d: iter=    54 ; resid.=  4.98456337015420E-06
(PID.TID 0000.0001)  cg2d: iter=    55 ; resid.=  3.87838873940794E-06
(PID.TID 0000.0001)  cg2d: iter=    56 ; resid.=  3.46588582403689E-06
(PID.TID 0000.0001)  cg2d: iter=    57 ; resid.=  2.94392694220273E-06
(PID.TID 0000.0001)  cg2d: iter=    58 ; resid.=  2.42452402579162E-06
(PID.TID 0000.0001)  cg2d: iter=    59 ; resid.=  1.97868666007556E-06
(PID.TID 0000.0001)  cg2d: iter=    60 ; resid.=  1.62344519851099E-06
(PID.TID 0000.0001)  cg2d: iter=    61 ; resid.=  1.37965798208690E-06
(PID.TID 0000.0001)  cg2d: iter=    62 ; resid.=  1.20822646718827E-06
(PID.TID 0000.0001)  cg2d: iter=    63 ; resid.=  9.71504385881623E-07
(PID.TID 0000.0001)  cg2d: iter=    64 ; resid.=  7.92028014212571E-07
(PID.TID 0000.0001)  cg2d: iter=    65 ; resid.=  6.39729872796984E-07
(PID.TID 0000.0001)  cg2d: iter=    66 ; resid.=  4.81162447942809E-07
(PID.TID 0000.0001)  cg2d: iter=    67 ; resid.=  3.90732372228966E-07
(PID.TID 0000.0001)  cg2d: iter=    68 ; resid.=  3.30184916220608E-07
(PID.TID 0000.0001)  cg2d: iter=    69 ; resid.=  2.69773115591639E-07
(PID.TID 0000.0001)  cg2d: iter=    70 ; resid.=  2.15910606168291E-07
(PID.TID 0000.0001)  cg2d: iter=    71 ; resid.=  1.71377817477513E-07
(PID.TID 0000.0001)  cg2d: iter=    72 ; resid.=  1.34093783902919E-07
(PID.TID 0000.0001)  cg2d: iter=    73 ; resid.=  1.09981591464642E-07
(PID.TID 0000.0001)  cg2d: iter=    74 ; resid.=  9.06179517999181E-08
(PID.TID 0000.0001)  cg2d: iter=    75 ; resid.=  6.68532718846372E-08
(PID.TID 0000.0001)  cg2d: iter=    76 ; resid.=  5.08792740160364E-08
(PID.TID 0000.0001)  cg2d: iter=    77 ; resid.=  4.14561354606854E-08
(PID.TID 0000.0001)  cg2d: iter=    78 ; resid.=  3.10698396542746E-08
(PID.TID 0000.0001)  cg2d: iter=    79 ; resid.=  2.52996503421167E-08
(PID.TID 0000.0001)  cg2d: iter=    80 ; resid.=  2.05208282180060E-08
(PID.TID 0000.0001)  cg2d: iter=    81 ; resid.=  1.83450791697828E-08
(PID.TID 0000.0001)  cg2d: iter=    82 ; resid.=  1.69140337474425E-08
(PID.TID 0000.0001)  cg2d: iter=    83 ; resid.=  1.49937576339812E-08
(PID.TID 0000.0001)  cg2d: iter=    84 ; resid.=  1.38475985958331E-08
(PID.TID 0000.0001)  cg2d: iter=    85 ; resid.=  1.28763867864741E-08
(PID.TID 0000.0001)  cg2d: iter=    86 ; resid.=  1.06546449943289E-08
(PID.TID 0000.0001)  cg2d: iter=    87 ; resid.=  8.24875985373037E-09
(PID.TID 0000.0001)  cg2d: iter=    88 ; resid.=  7.05275788261535E-09
(PID.TID 0000.0001)  cg2d: iter=    89 ; resid.=  6.36385669799217E-09
(PID.TID 0000.0001)  cg2d: iter=    90 ; resid.=  5.56472616718867E-09
(PID.TID 0000.0001)  cg2d: iter=    91 ; resid.=  4.65618368530901E-09
(PID.TID 0000.0001)  cg2d: iter=    92 ; resid.=  3.63297914381066E-09
(PID.TID 0000.0001)  cg2d: iter=    93 ; resid.=  2.88739833812005E-09
(PID.TID 0000.0001)  cg2d: iter=    94 ; resid.=  2.33977544463760E-09
(PID.TID 0000.0001)  cg2d: iter=    95 ; resid.=  1.88704835409451E-09
(PID.TID 0000.0001)  cg2d: iter=    96 ; resid.=  1.43602786259637E-09
(PID.TID 0000.0001)  cg2d: iter=    97 ; resid.=  1.11052597792571E-09
(PID.TID 0000.0001)  cg2d: iter=    98 ; resid.=  9.05038386970147E-10
(PID.TID 0000.0001)  cg2d: iter=    99 ; resid.=  7.40380130670399E-10
(PID.TID 0000.0001)  cg2d: iter=   100 ; resid.=  6.20086212122359E-10
(PID.TID 0000.0001)  cg2d: iter=   101 ; resid.=  4.89437458601184E-10
(PID.TID 0000.0001)  cg2d: iter=   102 ; resid.=  3.74787582113683E-10
(PID.TID 0000.0001)  cg2d: iter=   103 ; resid.=  2.73029141275995E-10
(PID.TID 0000.0001)  cg2d: iter=   104 ; resid.=  2.21536104114033E-10
(PID.TID 0000.0001)  cg2d: iter=   105 ; resid.=  1.84532004602028E-10
(PID.TID 0000.0001)  cg2d: iter=   106 ; resid.=  1.63522877209991E-10
(PID.TID 0000.0001)  cg2d: iter=   107 ; resid.=  1.51095732043132E-10
(PID.TID 0000.0001)  cg2d: iter=   108 ; resid.=  1.30611727590453E-10
(PID.TID 0000.0001)  cg2d: iter=   109 ; resid.=  1.07876190736260E-10
(PID.TID 0000.0001)  cg2d: iter=   110 ; resid.=  8.50165867297062E-11
(PID.TID 0000.0001)  cg2d: iter=   111 ; resid.=  6.50995846116752E-11
(PID.TID 0000.0001)  cg2d: iter=   112 ; resid.=  5.09502220043491E-11
(PID.TID 0000.0001)  cg2d: iter=   113 ; resid.=  3.52682465070759E-11
(PID.TID 0000.0001)  cg2d: iter=   114 ; resid.=  2.66710761843071E-11
(PID.TID 0000.0001)  cg2d: iter=   115 ; resid.=  1.97372721373957E-11
(PID.TID 0000.0001)  cg2d: iter=   116 ; resid.=  1.42773071493466E-11
(PID.TID 0000.0001)  cg2d: iter=   117 ; resid.=  1.04169613782994E-11
(PID.TID 0000.0001)  cg2d: iter=   118 ; resid.=  7.84632777813865E-12
(PID.TID 0000.0001)  cg2d: iter=   119 ; resid.=  6.03147754635278E-12
(PID.TID 0000.0001)  cg2d: iter=   120 ; resid.=  4.76431764220623E-12
(PID.TID 0000.0001)  cg2d: iter=   121 ; resid.=  3.60444588499543E-12
(PID.TID 0000.0001)  cg2d: iter=   122 ; resid.=  2.54066657003818E-12
(PID.TID 0000.0001)  cg2d: iter=   123 ; resid.=  1.99230975645948E-12
(PID.TID 0000.0001)  cg2d: iter=   124 ; resid.=  1.69309763437361E-12
(PID.TID 0000.0001)  cg2d: iter=   125 ; resid.=  1.41213483075705E-12
(PID.TID 0000.0001)  cg2d: iter=   126 ; resid.=  1.00117564738620E-12
(PID.TID 0000.0001)  cg2d: iter=   127 ; resid.=  6.39305409503399E-13
(PID.TID 0000.0001)  cg2d: iter=   128 ; resid.=  4.50721149916253E-13
(PID.TID 0000.0001)  cg2d: iter=   129 ; resid.=  3.41983167727971E-13
(PID.TID 0000.0001)  cg2d: iter=   130 ; resid.=  2.52551914470251E-13
(PID.TID 0000.0001)  cg2d: iter=   131 ; resid.=  1.95800208979444E-13
(PID.TID 0000.0001)  cg2d: iter=   132 ; resid.=  1.44614532005108E-13
(PID.TID 0000.0001)  cg2d: iter=   133 ; resid.=  1.09842704367648E-13
(PID.TID 0000.0001)  cg2d: iter=   134 ; resid.=  8.56326856965520E-14
DEBUG_STATS_RL:    cg2d_x (SOLVE_FOR_PRESSURE)  min= -1.69199970939021E+01
DEBUG_STATS_RL:    cg2d_x (SOLVE_FOR_PRESSURE)  max=  8.13335831522538E+00
DEBUG_STATS_RL:    cg2d_x (SOLVE_FOR_PRESSURE) mean= -1.53941605403088E+00
DEBUG_STATS_RL:    cg2d_x (SOLVE_FOR_PRESSURE) S.D.=  6.18684152017434E+00
(PID.TID 0000.0001)      cg2d_init_res =   4.39917406645978E-01
(PID.TID 0000.0001)      cg2d_iters(min,last) =      -1     134
(PID.TID 0000.0001)      cg2d_last_res =   8.56326856965520E-14
(PID.TID 0000.0001) // =======================================================
(PID.TID 0000.0001) // Begin MONITOR dynamic field statistics
(PID.TID 0000.0001) // =======================================================
(PID.TID 0000.0001) %MON time_tsnumber                =                    29
(PID.TID 0000.0001) %MON time_secondsf                =   2.5056000000000E+06
(PID.TID 0000.0001) %MON dynstat_eta_max              =   8.2908851327475E-01
(PID.TID 0000.0001) %MON dynstat_eta_min              =  -1.7247703459635E+00
(PID.TID 0000.0001) %MON dynstat_eta_mean             =  -2.1416266036095E-03
(PID.TID 0000.0001) %MON dynstat_eta_sd               =   5.4215724209440E-01
(PID.TID 0000.0001) %MON dynstat_eta_del2             =   2.1095638294998E-03
(PID.TID 0000.0001) %MON dynstat_uvel_max             =   1.0723264130806E-01
(PID.TID 0000.0001) %MON dynstat_uvel_min             =  -1.7271264439105E-01
(PID.TID 0000.0001) %MON dynstat_uvel_mean            =   1.4314436238360E-03
(PID.TID 0000.0001) %MON dynstat_uvel_sd              =   1.2833977213697E-02
(PID.TID 0000.0001) %MON dynstat_uvel_del2            =   7.7556926661967E-05
(PID.TID 0000.0001) %MON dynstat_vvel_max             =   1.1977256403701E-01
(PID.TID 0000.0001) %MON dynstat_vvel_min             =  -1.2811430626086E-01
(PID.TID 0000.0001) %MON dynstat_vvel_mean            =   2.4833150076976E-06
(PID.TID 0000.0001) %MON dynstat_vvel_sd              =   9.0496903593928E-03
(PID.TID 0000.0001) %MON dynstat_vvel_del2            =   7.5965827180520E-05
(PID.TID 0000.0001) %MON dynstat_wvel_max             =   1.0854785073181E-04
(PID.TID 0000.0001) %MON dynstat_wvel_min             =  -1.1894025747362E-04
(PID.TID 0000.0001) %MON dynstat_wvel_mean            =  -1.4790874721279E-22
(PID.TID 0000.0001) %MON dynstat_wvel_sd              =   1.3954103907766E-05
(PID.TID 0000.0001) %MON dynstat_wvel_del2            =   1.6260942002611E-07
(PID.TID 0000.0001) %MON dynstat_theta_max            =   2.9961997644496E+01
(PID.TID 0000.0001) %MON dynstat_theta_min            =  -2.0085829622290E+00
(PID.TID 0000.0001) %MON dynstat_theta_mean           =   3.6310384914210E+00
(PID.TID 0000.0001) %MON dynstat_theta_sd             =   4.4172253486961E+00
(PID.TID 0000.0001) %MON dynstat_theta_del2           =   4.8475103333687E-03
(PID.TID 0000.0001) %MON dynstat_salt_max             =   3.7460470611461E+01
(PID.TID 0000.0001) %MON dynstat_salt_min             =   2.9829535319170E+01
(PID.TID 0000.0001) %MON dynstat_salt_mean            =   3.4727964913908E+01
(PID.TID 0000.0001) %MON dynstat_salt_sd              =   2.9621037462110E-01
(PID.TID 0000.0001) %MON dynstat_salt_del2            =   9.9953776567347E-04
(PID.TID 0000.0001) %MON dynstat_sst_max              =   2.9961997644496E+01
(PID.TID 0000.0001) %MON dynstat_sst_min              =  -2.0085829622290E+00
(PID.TID 0000.0001) %MON dynstat_sst_mean             =   1.8739178779212E+01
(PID.TID 0000.0001) %MON dynstat_sst_sd               =   9.0554638945243E+00
(PID.TID 0000.0001) %MON dynstat_sst_del2             =   2.6615432046308E-02
(PID.TID 0000.0001) %MON dynstat_sss_max              =   3.7442043368945E+01
(PID.TID 0000.0001) %MON dynstat_sss_min              =   2.9829535319170E+01
(PID.TID 0000.0001) %MON dynstat_sss_mean             =   3.4857101596491E+01
(PID.TID 0000.0001) %MON dynstat_sss_sd               =   9.7486092055554E-01
(PID.TID 0000.0001) %MON dynstat_sss_del2             =   7.8794787412405E-03
(PID.TID 0000.0001) %MON forcing_qnet_max             =   3.9846548970540E+02
(PID.TID 0000.0001) %MON forcing_qnet_min             =  -1.7690579630534E+02
(PID.TID 0000.0001) %MON forcing_qnet_mean            =  -1.5408706824800E+01
(PID.TID 0000.0001) %MON forcing_qnet_sd              =   9.6156770907790E+01
(PID.TID 0000.0001) %MON forcing_qnet_del2            =   9.7855893917677E-01
(PID.TID 0000.0001) %MON forcing_qsw_max              =   0.0000000000000E+00
(PID.TID 0000.0001) %MON forcing_qsw_min              =   0.0000000000000E+00
(PID.TID 0000.0001) %MON forcing_qsw_mean             =   0.0000000000000E+00
(PID.TID 0000.0001) %MON forcing_qsw_sd               =   0.0000000000000E+00
(PID.TID 0000.0001) %MON forcing_qsw_del2             =   0.0000000000000E+00
(PID.TID 0000.0001) %MON forcing_empmr_max            =   7.8091072452935E-05
(PID.TID 0000.0001) %MON forcing_empmr_min            =  -7.7191331608143E-05
(PID.TID 0000.0001) %MON forcing_empmr_mean           =   9.3180822649008E-07
(PID.TID 0000.0001) %MON forcing_empmr_sd             =   2.8244821350011E-05
(PID.TID 0000.0001) %MON forcing_empmr_del2           =   3.5593995327088E-07
(PID.TID 0000.0001) %MON forcing_fu_max               =   2.8105383813381E-01
(PID.TID 0000.0001) %MON forcing_fu_min               =  -1.8751364648342E-01
(PID.TID 0000.0001) %MON forcing_fu_mean              =   1.6707637953663E-02
(PID.TID 0000.0001) %MON forcing_fu_sd                =   8.9991600126903E-02
(PID.TID 0000.0001) %MON forcing_fu_del2              =   6.6831144155872E-04
(PID.TID 0000.0001) %MON forcing_fv_max               =   1.9141846299171E-01
(PID.TID 0000.0001) %MON forcing_fv_min               =  -1.6525000333786E-01
(PID.TID 0000.0001) %MON forcing_fv_mean              =  -6.1072895268024E-03
(PID.TID 0000.0001) %MON forcing_fv_sd                =   4.5167602989543E-02
(PID.TID 0000.0001) %MON forcing_fv_del2              =   4.6381451541736E-04
(PID.TID 0000.0001) %MON trAdv_CFL_u_max              =   3.4259381220370E-02
(PID.TID 0000.0001) %MON trAdv_CFL_v_max              =   2.5694933095940E-02
(PID.TID 0000.0001) %MON trAdv_CFL_w_max              =   4.5084199898289E-02
(PID.TID 0000.0001) %MON advcfl_uvel_max              =   3.4582546247188E-02
(PID.TID 0000.0001) %MON advcfl_vvel_max              =   2.4890555000041E-02
(PID.TID 0000.0001) %MON advcfl_wvel_max              =   4.1604450374432E-02
(PID.TID 0000.0001) %MON advcfl_W_hf_max              =   4.8334765650022E-02
(PID.TID 0000.0001) %MON pe_b_mean                    =   3.7613045877783E-04
(PID.TID 0000.0001) %MON ke_max                       =   1.4506326051512E-02
(PID.TID 0000.0001) %MON ke_mean                      =   1.1252870191054E-04
(PID.TID 0000.0001) %MON ke_vol                       =   1.3226782436723E+18
(PID.TID 0000.0001) %MON vort_r_min                   =  -2.8121471418564E-07
(PID.TID 0000.0001) %MON vort_r_max                   =   3.9899730089135E-07
(PID.TID 0000.0001) %MON vort_a_mean                  =  -2.5274807352896E-05
(PID.TID 0000.0001) %MON vort_a_sd                    =   7.3604504786298E-05
(PID.TID 0000.0001) %MON vort_p_mean                  =  -3.1845655743334E-05
(PID.TID 0000.0001) %MON vort_p_sd                    =   1.3162661204921E-04
(PID.TID 0000.0001) %MON surfExpan_theta_mean         =   8.1853745556873E-08
(PID.TID 0000.0001) %MON surfExpan_salt_mean          =  -6.2968691843542E-08
(PID.TID 0000.0001) // =======================================================
(PID.TID 0000.0001) // End MONITOR dynamic field statistics
(PID.TID 0000.0001) // =======================================================
 EXTERNAL_FIELDS_LOAD,        29 : iP,iLd,i0,i1=    1    2    1    2 ; Wght=  0.5333333333  0.4666666667
 EXTERNAL_FIELDS_LOAD: (fu0,1),fu,fv= -3.5633E-02 -1.4435E-02 -2.5740E-02 -3.8767E-02
 EXTERNAL_FIELDS_LOAD: SST,SSS,Q,E-P=  2.6296E-01  3.4578E+01  2.5397E+02  1.0116E-05
DEBUG_STATS_RL:          Uvel (THERMODYNAMICS)  min= -1.72712644391052E-01
DEBUG_STATS_RL:          Uvel (THERMODYNAMICS)  max=  1.07232641308059E-01
DEBUG_STATS_RL:          Uvel (THERMODYNAMICS) mean=  2.50433353044386E-03
DEBUG_STATS_RL:          Uvel (THERMODYNAMICS) S.D.=  1.88737274034621E-02
DEBUG_STATS_RL:          Vvel (THERMODYNAMICS)  min= -1.28114306260856E-01
DEBUG_STATS_RL:          Vvel (THERMODYNAMICS)  max=  1.19772564037007E-01
DEBUG_STATS_RL:          Vvel (THERMODYNAMICS) mean=  7.44947910769865E-04
DEBUG_STATS_RL:          Vvel (THERMODYNAMICS) S.D.=  1.39208408706967E-02
DEBUG_STATS_RL:          Wvel (THERMODYNAMICS)  min= -1.18940257473618E-04
DEBUG_STATS_RL:          Wvel (THERMODYNAMICS)  max=  1.08547850731811E-04
DEBUG_STATS_RL:          Wvel (THERMODYNAMICS) mean=  5.65523429215992E-08
DEBUG_STATS_RL:          Wvel (THERMODYNAMICS) S.D.=  1.25527327989838E-05
DEBUG_STATS_RL:         Theta (THERMODYNAMICS)  min= -2.00781317956341E+00
DEBUG_STATS_RL:         Theta (THERMODYNAMICS)  max=  2.99790461224087E+01
DEBUG_STATS_RL:         Theta (THERMODYNAMICS) mean=  3.21902136375020E+00
DEBUG_STATS_RL:         Theta (THERMODYNAMICS) S.D.=  5.85866676722391E+00
DEBUG_STATS_RL:          Salt (THERMODYNAMICS)  min=  9.99999999999999E-03
DEBUG_STATS_RL:          Salt (THERMODYNAMICS)  max=  3.74613951741914E+01
DEBUG_STATS_RL:          Salt (THERMODYNAMICS) mean=  1.88549365204047E+01
DEBUG_STATS_RL:          Salt (THERMODYNAMICS) S.D.=  1.73004412877828E+01
DEBUG_STATS_RL:         GtNm1 (THERMODYNAMICS)  min= -4.28879854746024E-06
DEBUG_STATS_RL:         GtNm1 (THERMODYNAMICS)  max=  2.53858399364308E-06
DEBUG_STATS_RL:         GtNm1 (THERMODYNAMICS) mean=  3.40633557736922E-09
DEBUG_STATS_RL:         GtNm1 (THERMODYNAMICS) S.D.=  2.18308219163753E-07
DEBUG_STATS_RL:         GsNm1 (THERMODYNAMICS)  min= -9.11455502411900E-07
DEBUG_STATS_RL:         GsNm1 (THERMODYNAMICS)  max=  6.71087454439982E-07
DEBUG_STATS_RL:         GsNm1 (THERMODYNAMICS) mean= -6.66218358382735E-10
DEBUG_STATS_RL:         GsNm1 (THERMODYNAMICS) S.D.=  2.00665335997536E-08
DEBUG_STATS_RL:                EtaN (DYNAMICS)  min= -1.72477034596346E+00
DEBUG_STATS_RL:                EtaN (DYNAMICS)  max=  8.29088513274746E-01
DEBUG_STATS_RL:                EtaN (DYNAMICS) mean= -1.56923145161151E-01
DEBUG_STATS_RL:                EtaN (DYNAMICS) S.D.=  6.30666821628374E-01
DEBUG_STATS_RL:                Uvel (DYNAMICS)  min= -1.72712644391052E-01
DEBUG_STATS_RL:                Uvel (DYNAMICS)  max=  1.07232641308059E-01
DEBUG_STATS_RL:                Uvel (DYNAMICS) mean=  2.50433353044386E-03
DEBUG_STATS_RL:                Uvel (DYNAMICS) S.D.=  1.88737274034621E-02
DEBUG_STATS_RL:                Vvel (DYNAMICS)  min= -1.28114306260856E-01
DEBUG_STATS_RL:                Vvel (DYNAMICS)  max=  1.19772564037007E-01
DEBUG_STATS_RL:                Vvel (DYNAMICS) mean=  7.44947910769865E-04
DEBUG_STATS_RL:                Vvel (DYNAMICS) S.D.=  1.39208408706967E-02
DEBUG_STATS_RL:                Wvel (DYNAMICS)  min= -1.18940257473618E-04
DEBUG_STATS_RL:                Wvel (DYNAMICS)  max=  1.08547850731811E-04
DEBUG_STATS_RL:                Wvel (DYNAMICS) mean=  5.65523429215992E-08
DEBUG_STATS_RL:                Wvel (DYNAMICS) S.D.=  1.25527327989838E-05
DEBUG_STATS_RL:               Theta (DYNAMICS)  min= -2.00781317956341E+00
DEBUG_STATS_RL:               Theta (DYNAMICS)  max=  2.99790461224087E+01
DEBUG_STATS_RL:               Theta (DYNAMICS) mean=  3.21902136375020E+00
DEBUG_STATS_RL:               Theta (DYNAMICS) S.D.=  5.85866676722391E+00
DEBUG_STATS_RL:                Salt (DYNAMICS)  min=  9.99999999999999E-03
DEBUG_STATS_RL:                Salt (DYNAMICS)  max=  3.74613951741914E+01
DEBUG_STATS_RL:                Salt (DYNAMICS) mean=  1.88549365204047E+01
DEBUG_STATS_RL:                Salt (DYNAMICS) S.D.=  1.73004412877828E+01
DEBUG_STATS_RL:                  Gu (DYNAMICS)  min= -1.75260874100766E-01
DEBUG_STATS_RL:                  Gu (DYNAMICS)  max=  1.05097801018580E-01
DEBUG_STATS_RL:                  Gu (DYNAMICS) mean=  2.56076990225664E-03
DEBUG_STATS_RL:                  Gu (DYNAMICS) S.D.=  1.94994044190857E-02
DEBUG_STATS_RL:                  Gv (DYNAMICS)  min= -1.32499426475676E-01
DEBUG_STATS_RL:                  Gv (DYNAMICS)  max=  1.12174954978857E-01
DEBUG_STATS_RL:                  Gv (DYNAMICS) mean=  2.82084073165617E-03
DEBUG_STATS_RL:                  Gv (DYNAMICS) S.D.=  1.47465033175071E-02
DEBUG_STATS_RL:               GuNm1 (DYNAMICS)  min= -7.84585583529476E-06
DEBUG_STATS_RL:               GuNm1 (DYNAMICS)  max=  7.59606342903156E-06
DEBUG_STATS_RL:               GuNm1 (DYNAMICS) mean= -1.55134458664955E-08
DEBUG_STATS_RL:               GuNm1 (DYNAMICS) S.D.=  1.20066760368420E-06
DEBUG_STATS_RL:               GvNm1 (DYNAMICS)  min= -1.08136615583796E-05
DEBUG_STATS_RL:               GvNm1 (DYNAMICS)  max=  1.66712854022370E-05
DEBUG_STATS_RL:               GvNm1 (DYNAMICS) mean=  7.64350941901564E-07
DEBUG_STATS_RL:               GvNm1 (DYNAMICS) S.D.=  2.65551048036375E-06
DEBUG_STATS_RL:               GtNm1 (DYNAMICS)  min= -4.28879854746024E-06
DEBUG_STATS_RL:               GtNm1 (DYNAMICS)  max=  2.53858399364308E-06
DEBUG_STATS_RL:               GtNm1 (DYNAMICS) mean=  3.40633557736922E-09
DEBUG_STATS_RL:               GtNm1 (DYNAMICS) S.D.=  2.18308219163753E-07
DEBUG_STATS_RL:               GsNm1 (DYNAMICS)  min= -9.11455502411900E-07
DEBUG_STATS_RL:               GsNm1 (DYNAMICS)  max=  6.71087454439982E-07
DEBUG_STATS_RL:               GsNm1 (DYNAMICS) mean= -6.66218358382735E-10
DEBUG_STATS_RL:               GsNm1 (DYNAMICS) S.D.=  2.00665335997536E-08
DEBUG_STATS_RL:    cg2d_b (SOLVE_FOR_PRESSURE)  min= -2.15578753537068E+04
DEBUG_STATS_RL:    cg2d_b (SOLVE_FOR_PRESSURE)  max=  1.85218857837738E+04
DEBUG_STATS_RL:    cg2d_b (SOLVE_FOR_PRESSURE) mean=  2.12719986893455E+00
DEBUG_STATS_RL:    cg2d_b (SOLVE_FOR_PRESSURE) S.D.=  3.82672894442815E+03
 cg2d: Sum(rhs),rhsMax =   2.28430103420922E-01  1.41597897284122E+00
(PID.TID 0000.0001)  cg2d: iter=     1 ; resid.=  1.56782095559178E-01
(PID.TID 0000.0001)  cg2d: iter=     2 ; resid.=  1.31007864961527E-01
(PID.TID 0000.0001)  cg2d: iter=     3 ; resid.=  1.19357375957705E-01
(PID.TID 0000.0001)  cg2d: iter=     4 ; resid.=  1.00018400509821E-01
(PID.TID 0000.0001)  cg2d: iter=     5 ; resid.=  8.42627182690874E-02
(PID.TID 0000.0001)  cg2d: iter=     6 ; resid.=  7.24028432779151E-02
(PID.TID 0000.0001)  cg2d: iter=     7 ; resid.=  6.43571658147425E-02
(PID.TID 0000.0001)  cg2d: iter=     8 ; resid.=  4.80682469488917E-02
(PID.TID 0000.0001)  cg2d: iter=     9 ; resid.=  3.71922952402937E-02
(PID.TID 0000.0001)  cg2d: iter=    10 ; resid.=  3.12036872562938E-02
(PID.TID 0000.0001)  cg2d: iter=    11 ; resid.=  2.79187264592147E-02
(PID.TID 0000.0001)  cg2d: iter=    12 ; resid.=  2.31868343628967E-02
(PID.TID 0000.0001)  cg2d: iter=    13 ; resid.=  1.91145772754509E-02
(PID.TID 0000.0001)  cg2d: iter=    14 ; resid.=  1.46377487538128E-02
(PID.TID 0000.0001)  cg2d: iter=    15 ; resid.=  1.15988690854744E-02
(PID.TID 0000.0001)  cg2d: iter=    16 ; resid.=  9.89175696127671E-03
(PID.TID 0000.0001)  cg2d: iter=    17 ; resid.=  8.51487290007218E-03
(PID.TID 0000.0001)  cg2d: iter=    18 ; resid.=  7.36225578503197E-03
(PID.TID 0000.0001)  cg2d: iter=    19 ; resid.=  5.92925095185202E-03
(PID.TID 0000.0001)  cg2d: iter=    20 ; resid.=  4.70213340632087E-03
(PID.TID 0000.0001)  cg2d: iter=    21 ; resid.=  3.89562989938009E-03
(PID.TID 0000.0001)  cg2d: iter=    22 ; resid.=  3.40320074847385E-03
(PID.TID 0000.0001)  cg2d: iter=    23 ; resid.=  3.03726787209184E-03
(PID.TID 0000.0001)  cg2d: iter=    24 ; resid.=  2.57457342880373E-03
(PID.TID 0000.0001)  cg2d: iter=    25 ; resid.=  1.96315070040360E-03
(PID.TID 0000.0001)  cg2d: iter=    26 ; resid.=  1.60337468639644E-03
(PID.TID 0000.0001)  cg2d: iter=    27 ; resid.=  1.37596410189333E-03
(PID.TID 0000.0001)  cg2d: iter=    28 ; resid.=  1.16311619617862E-03
(PID.TID 0000.0001)  cg2d: iter=    29 ; resid.=  9.68225407668440E-04
(PID.TID 0000.0001)  cg2d: iter=    30 ; resid.=  7.71667581340440E-04
(PID.TID 0000.0001)  cg2d: iter=    31 ; resid.=  6.50288502093927E-04
(PID.TID 0000.0001)  cg2d: iter=    32 ; resid.=  5.27482565747754E-04
(PID.TID 0000.0001)  cg2d: iter=    33 ; resid.=  4.19509937292878E-04
(PID.TID 0000.0001)  cg2d: iter=    34 ; resid.=  3.33184075085304E-04
(PID.TID 0000.0001)  cg2d: iter=    35 ; resid.=  2.62380192035189E-04
(PID.TID 0000.0001)  cg2d: iter=    36 ; resid.=  2.08170661252676E-04
(PID.TID 0000.0001)  cg2d: iter=    37 ; resid.=  1.77209973954611E-04
(PID.TID 0000.0001)  cg2d: iter=    38 ; resid.=  1.51079543685835E-04
(PID.TID 0000.0001)  cg2d: iter=    39 ; resid.=  1.23970516943699E-04
(PID.TID 0000.0001)  cg2d: iter=    40 ; resid.=  9.77515759260148E-05
(PID.TID 0000.0001)  cg2d: iter=    41 ; resid.=  8.14313963227424E-05
(PID.TID 0000.0001)  cg2d: iter=    42 ; resid.=  7.63832718397840E-05
(PID.TID 0000.0001)  cg2d: iter=    43 ; resid.=  6.73888160669985E-05
(PID.TID 0000.0001)  cg2d: iter=    44 ; resid.=  5.62788837739436E-05
(PID.TID 0000.0001)  cg2d: iter=    45 ; resid.=  4.89489065156835E-05
(PID.TID 0000.0001)  cg2d: iter=    46 ; resid.=  4.08209379012018E-05
(PID.TID 0000.0001)  cg2d: iter=    47 ; resid.=  3.42647552769408E-05
(PID.TID 0000.0001)  cg2d: iter=    48 ; resid.=  2.82603546249798E-05
(PID.TID 0000.0001)  cg2d: iter=    49 ; resid.=  2.18945412817434E-05
(PID.TID 0000.0001)  cg2d: iter=    50 ; resid.=  1.65384013432344E-05
(PID.TID 0000.0001)  cg2d: iter=    51 ; resid.=  1.38412872487272E-05
(PID.TID 0000.0001)  cg2d: iter=    52 ; resid.=  1.16494938127455E-05
(PID.TID 0000.0001)  cg2d: iter=    53 ; resid.=  9.98743878538003E-06
(PID.TID 0000.0001)  cg2d: iter=    54 ; resid.=  8.65431466122832E-06
(PID.TID 0000.0001)  cg2d: iter=    55 ; resid.=  7.25593383958050E-06
(PID.TID 0000.0001)  cg2d: iter=    56 ; resid.=  6.81993492043342E-06
(PID.TID 0000.0001)  cg2d: iter=    57 ; resid.=  5.84729622080121E-06
(PID.TID 0000.0001)  cg2d: iter=    58 ; resid.=  4.88515149656628E-06
(PID.TID 0000.0001)  cg2d: iter=    59 ; resid.=  3.97551493374314E-06
(PID.TID 0000.0001)  cg2d: iter=    60 ; resid.=  3.29102812499697E-06
(PID.TID 0000.0001)  cg2d: iter=    61 ; resid.=  2.81692241558550E-06
(PID.TID 0000.0001)  cg2d: iter=    62 ; resid.=  2.45612270709830E-06
(PID.TID 0000.0001)  cg2d: iter=    63 ; resid.=  1.90564383237608E-06
(PID.TID 0000.0001)  cg2d: iter=    64 ; resid.=  1.56138588120844E-06
(PID.TID 0000.0001)  cg2d: iter=    65 ; resid.=  1.23686952152897E-06
(PID.TID 0000.0001)  cg2d: iter=    66 ; resid.=  9.53495871788220E-07
(PID.TID 0000.0001)  cg2d: iter=    67 ; resid.=  8.20286472738934E-07
(PID.TID 0000.0001)  cg2d: iter=    68 ; resid.=  7.21429301340416E-07
(PID.TID 0000.0001)  cg2d: iter=    69 ; resid.=  5.93918801478387E-07
(PID.TID 0000.0001)  cg2d: iter=    70 ; resid.=  4.75742455710231E-07
(PID.TID 0000.0001)  cg2d: iter=    71 ; resid.=  3.90454832298850E-07
(PID.TID 0000.0001)  cg2d: iter=    72 ; resid.=  3.31354836236009E-07
(PID.TID 0000.0001)  cg2d: iter=    73 ; resid.=  2.94241189269730E-07
(PID.TID 0000.0001)  cg2d: iter=    74 ; resid.=  2.62480230143250E-07
(PID.TID 0000.0001)  cg2d: iter=    75 ; resid.=  2.16148475262580E-07
(PID.TID 0000.0001)  cg2d: iter=    76 ; resid.=  1.94314397878049E-07
(PID.TID 0000.0001)  cg2d: iter=    77 ; resid.=  1.70303218064791E-07
(PID.TID 0000.0001)  cg2d: iter=    78 ; resid.=  1.35718499564949E-07
(PID.TID 0000.0001)  cg2d: iter=    79 ; resid.=  1.15175358209574E-07
(PID.TID 0000.0001)  cg2d: iter=    80 ; resid.=  9.04636743905469E-08
(PID.TID 0000.0001)  cg2d: iter=    81 ; resid.=  7.44053857277324E-08
(PID.TID 0000.0001)  cg2d: iter=    82 ; resid.=  5.80205080754024E-08
(PID.TID 0000.0001)  cg2d: iter=    83 ; resid.=  4.35884597072850E-08
(PID.TID 0000.0001)  cg2d: iter=    84 ; resid.=  3.32803309501678E-08
(PID.TID 0000.0001)  cg2d: iter=    85 ; resid.=  2.53784795809931E-08
(PID.TID 0000.0001)  cg2d: iter=    86 ; resid.=  1.81554104733729E-08
(PID.TID 0000.0001)  cg2d: iter=    87 ; resid.=  1.27363409916759E-08
(PID.TID 0000.0001)  cg2d: iter=    88 ; resid.=  9.95572450753595E-09
(PID.TID 0000.0001)  cg2d: iter=    89 ; resid.=  8.38861769114294E-09
(PID.TID 0000.0001)  cg2d: iter=    90 ; resid.=  7.04639776980809E-09
(PID.TID 0000.0001)  cg2d: iter=    91 ; resid.=  5.78732357104125E-09
(PID.TID 0000.0001)  cg2d: iter=    92 ; resid.=  4.41893847572230E-09
(PID.TID 0000.0001)  cg2d: iter=    93 ; resid.=  3.56038976098047E-09
(PID.TID 0000.0001)  cg2d: iter=    94 ; resid.=  2.87836359685429E-09
(PID.TID 0000.0001)  cg2d: iter=    95 ; resid.=  2.30339690455239E-09
(PID.TID 0000.0001)  cg2d: iter=    96 ; resid.=  1.72640841486376E-09
(PID.TID 0000.0001)  cg2d: iter=    97 ; resid.=  1.35372991917227E-09
(PID.TID 0000.0001)  cg2d: iter=    98 ; resid.=  1.10647574724456E-09
(PID.TID 0000.0001)  cg2d: iter=    99 ; resid.=  9.30134918937731E-10
(PID.TID 0000.0001)  cg2d: iter=   100 ; resid.=  8.05883506350127E-10
(PID.TID 0000.0001)  cg2d: iter=   101 ; resid.=  6.49067293204964E-10
(PID.TID 0000.0001)  cg2d: iter=   102 ; resid.=  5.04725124941188E-10
(PID.TID 0000.0001)  cg2d: iter=   103 ; resid.=  3.73194332458019E-10
(PID.TID 0000.0001)  cg2d: iter=   104 ; resid.=  3.16963061173368E-10
(PID.TID 0000.0001)  cg2d: iter=   105 ; resid.=  2.69883844665130E-10
(PID.TID 0000.0001)  cg2d: iter=   106 ; resid.=  2.36090709384537E-10
(PID.TID 0000.0001)  cg2d: iter=   107 ; resid.=  2.06798254326740E-10
(PID.TID 0000.0001)  cg2d: iter=   108 ; resid.=  1.62384451220422E-10
(PID.TID 0000.0001)  cg2d: iter=   109 ; resid.=  1.24521471369486E-10
(PID.TID 0000.0001)  cg2d: iter=   110 ; resid.=  9.31865187515145E-11
(PID.TID 0000.0001)  cg2d: iter=   111 ; resid.=  6.91617132044203E-11
(PID.TID 0000.0001)  cg2d: iter=   112 ; resid.=  5.26243522746641E-11
(PID.TID 0000.0001)  cg2d: iter=   113 ; resid.=  3.61739888180258E-11
(PID.TID 0000.0001)  cg2d: iter=   114 ; resid.=  2.80486019713838E-11
(PID.TID 0000.0001)  cg2d: iter=   115 ; resid.=  2.13740787694386E-11
(PID.TID 0000.0001)  cg2d: iter=   116 ; resid.=  1.59002537566886E-11
(PID.TID 0000.0001)  cg2d: iter=   117 ; resid.=  1.20786113163033E-11
(PID.TID 0000.0001)  cg2d: iter=   118 ; resid.=  9.58560765913331E-12
(PID.TID 0000.0001)  cg2d: iter=   119 ; resid.=  7.50848542377626E-12
(PID.TID 0000.0001)  cg2d: iter=   120 ; resid.=  5.94752809150312E-12
(PID.TID 0000.0001)  cg2d: iter=   121 ; resid.=  4.49961949589348E-12
(PID.TID 0000.0001)  cg2d: iter=   122 ; resid.=  3.14801999164169E-12
(PID.TID 0000.0001)  cg2d: iter=   123 ; resid.=  2.40109243956400E-12
(PID.TID 0000.0001)  cg2d: iter=   124 ; resid.=  1.94330045545698E-12
(PID.TID 0000.0001)  cg2d: iter=   125 ; resid.=  1.54117065349792E-12
(PID.TID 0000.0001)  cg2d: iter=   126 ; resid.=  1.05882330676938E-12
(PID.TID 0000.0001)  cg2d: iter=   127 ; resid.=  6.51553595682584E-13
(PID.TID 0000.0001)  cg2d: iter=   128 ; resid.=  4.46333670372694E-13
(PID.TID 0000.0001)  cg2d: iter=   129 ; resid.=  3.27335160447600E-13
(PID.TID 0000.0001)  cg2d: iter=   130 ; resid.=  2.43682300485377E-13
(PID.TID 0000.0001)  cg2d: iter=   131 ; resid.=  1.93289621430089E-13
(PID.TID 0000.0001)  cg2d: iter=   132 ; resid.=  1.49327320778263E-13
(PID.TID 0000.0001)  cg2d: iter=   133 ; resid.=  1.14719945753681E-13
(PID.TID 0000.0001)  cg2d: iter=   134 ; resid.=  9.35736110519053E-14
DEBUG_STATS_RL:    cg2d_x (SOLVE_FOR_PRESSURE)  min= -1.67743873734450E+01
DEBUG_STATS_RL:    cg2d_x (SOLVE_FOR_PRESSURE)  max=  8.25559241961268E+00
DEBUG_STATS_RL:    cg2d_x (SOLVE_FOR_PRESSURE) mean= -1.54729426874874E+00
DEBUG_STATS_RL:    cg2d_x (SOLVE_FOR_PRESSURE) S.D.=  6.20503757974143E+00
(PID.TID 0000.0001)      cg2d_init_res =   4.44468253789609E-01
(PID.TID 0000.0001)      cg2d_iters(min,last) =      -1     134
(PID.TID 0000.0001)      cg2d_last_res =   9.35736110519053E-14
(PID.TID 0000.0001) // =======================================================
(PID.TID 0000.0001) // Begin MONITOR dynamic field statistics
(PID.TID 0000.0001) // =======================================================
(PID.TID 0000.0001) %MON time_tsnumber                =                    30
(PID.TID 0000.0001) %MON time_secondsf                =   2.5920000000000E+06
(PID.TID 0000.0001) %MON dynstat_eta_max              =   8.4154866662718E-01
(PID.TID 0000.0001) %MON dynstat_eta_min              =  -1.7099273571299E+00
(PID.TID 0000.0001) %MON dynstat_eta_mean             =  -2.2194692991573E-03
(PID.TID 0000.0001) %MON dynstat_eta_sd               =   5.4486313108741E-01
(PID.TID 0000.0001) %MON dynstat_eta_del2             =   2.1271724913708E-03
(PID.TID 0000.0001) %MON dynstat_uvel_max             =   1.0549432484187E-01
(PID.TID 0000.0001) %MON dynstat_uvel_min             =  -1.7369697535144E-01
(PID.TID 0000.0001) %MON dynstat_uvel_mean            =   1.6022192411127E-03
(PID.TID 0000.0001) %MON dynstat_uvel_sd              =   1.2941901397682E-02
(PID.TID 0000.0001) %MON dynstat_uvel_del2            =   7.7258054257833E-05
(PID.TID 0000.0001) %MON dynstat_vvel_max             =   1.1955275847545E-01
(PID.TID 0000.0001) %MON dynstat_vvel_min             =  -1.2576658099986E-01
(PID.TID 0000.0001) %MON dynstat_vvel_mean            =  -2.8410621878339E-05
(PID.TID 0000.0001) %MON dynstat_vvel_sd              =   8.8968349889132E-03
(PID.TID 0000.0001) %MON dynstat_vvel_del2            =   7.5595495359432E-05
(PID.TID 0000.0001) %MON dynstat_wvel_max             =   1.0639500637633E-04
(PID.TID 0000.0001) %MON dynstat_wvel_min             =  -1.1218046106040E-04
(PID.TID 0000.0001) %MON dynstat_wvel_mean            =  -3.7111941225138E-22
(PID.TID 0000.0001) %MON dynstat_wvel_sd              =   1.3957812514947E-05
(PID.TID 0000.0001) %MON dynstat_wvel_del2            =   1.6533733410118E-07
(PID.TID 0000.0001) %MON dynstat_theta_max            =   2.9979046122409E+01
(PID.TID 0000.0001) %MON dynstat_theta_min            =  -2.0078131795634E+00
(PID.TID 0000.0001) %MON dynstat_theta_mean           =   3.6311205671243E+00
(PID.TID 0000.0001) %MON dynstat_theta_sd             =   4.4173864511789E+00
(PID.TID 0000.0001) %MON dynstat_theta_del2           =   4.8429947601509E-03
(PID.TID 0000.0001) %MON dynstat_salt_max             =   3.7461395174191E+01
(PID.TID 0000.0001) %MON dynstat_salt_min             =   2.9831024838048E+01
(PID.TID 0000.0001) %MON dynstat_salt_mean            =   3.4727967647535E+01
(PID.TID 0000.0001) %MON dynstat_salt_sd              =   2.9622013620277E-01
(PID.TID 0000.0001) %MON dynstat_salt_del2            =   9.9800886605803E-04
(PID.TID 0000.0001) %MON dynstat_sst_max              =   2.9979046122409E+01
(PID.TID 0000.0001) %MON dynstat_sst_min              =  -2.0078131795634E+00
(PID.TID 0000.0001) %MON dynstat_sst_mean             =   1.8745967363835E+01
(PID.TID 0000.0001) %MON dynstat_sst_sd               =   9.0530123815968E+00
(PID.TID 0000.0001) %MON dynstat_sst_del2             =   2.6660819257463E-02
(PID.TID 0000.0001) %MON dynstat_sss_max              =   3.7442189171173E+01
(PID.TID 0000.0001) %MON dynstat_sss_min              =   2.9831024838048E+01
(PID.TID 0000.0001) %MON dynstat_sss_mean             =   3.4856518135906E+01
(PID.TID 0000.0001) %MON dynstat_sss_sd               =   9.7512618717955E-01
(PID.TID 0000.0001) %MON dynstat_sss_del2             =   7.8747905630335E-03
(PID.TID 0000.0001) %MON forcing_qnet_max             =   3.9514640299479E+02
(PID.TID 0000.0001) %MON forcing_qnet_min             =  -1.7666627705892E+02
(PID.TID 0000.0001) %MON forcing_qnet_mean            =  -1.5323797657397E+01
(PID.TID 0000.0001) %MON forcing_qnet_sd              =   9.5133125046695E+01
(PID.TID 0000.0001) %MON forcing_qnet_del2            =   9.7583035332786E-01
(PID.TID 0000.0001) %MON forcing_qsw_max              =   0.0000000000000E+00
(PID.TID 0000.0001) %MON forcing_qsw_min              =   0.0000000000000E+00
(PID.TID 0000.0001) %MON forcing_qsw_mean             =   0.0000000000000E+00
(PID.TID 0000.0001) %MON forcing_qsw_sd               =   0.0000000000000E+00
(PID.TID 0000.0001) %MON forcing_qsw_del2             =   0.0000000000000E+00
(PID.TID 0000.0001) %MON forcing_empmr_max            =   7.7776982720934E-05
(PID.TID 0000.0001) %MON forcing_empmr_min            =  -7.7270975869700E-05
(PID.TID 0000.0001) %MON forcing_empmr_mean           =   9.3249062375004E-07
(PID.TID 0000.0001) %MON forcing_empmr_sd             =   2.8214611087815E-05
(PID.TID 0000.0001) %MON forcing_empmr_del2           =   3.5545803972656E-07
(PID.TID 0000.0001) %MON forcing_fu_max               =   2.8244099617004E-01
(PID.TID 0000.0001) %MON forcing_fu_min               =  -1.8917357027531E-01
(PID.TID 0000.0001) %MON forcing_fu_mean              =   1.6761938169132E-02
(PID.TID 0000.0001) %MON forcing_fu_sd                =   9.0031773326239E-02
(PID.TID 0000.0001) %MON forcing_fu_del2              =   6.6818963371085E-04
(PID.TID 0000.0001) %MON forcing_fv_max               =   1.9031694233418E-01
(PID.TID 0000.0001) %MON forcing_fv_min               =  -1.6425870358944E-01
(PID.TID 0000.0001) %MON forcing_fv_mean              =  -6.1725504335176E-03
(PID.TID 0000.0001) %MON forcing_fv_sd                =   4.5033516804219E-02
(PID.TID 0000.0001) %MON forcing_fv_del2              =   4.6460661813294E-04
(PID.TID 0000.0001) %MON trAdv_CFL_u_max              =   3.4589570209669E-02
(PID.TID 0000.0001) %MON trAdv_CFL_v_max              =   2.5466487579714E-02
(PID.TID 0000.0001) %MON trAdv_CFL_w_max              =   4.5543754058297E-02
(PID.TID 0000.0001) %MON advcfl_uvel_max              =   3.4869631912811E-02
(PID.TID 0000.0001) %MON advcfl_vvel_max              =   2.4434429634815E-02
(PID.TID 0000.0001) %MON advcfl_wvel_max              =   4.2968205430321E-02
(PID.TID 0000.0001) %MON advcfl_W_hf_max              =   5.0641099257165E-02
(PID.TID 0000.0001) %MON pe_b_mean                    =   3.7989471330710E-04
(PID.TID 0000.0001) %MON ke_max                       =   1.4754770958002E-02
(PID.TID 0000.0001) %MON ke_mean                      =   1.1279671045124E-04
(PID.TID 0000.0001) %MON ke_vol                       =   1.3226782436723E+18
(PID.TID 0000.0001) %MON vort_r_min                   =  -2.9287094504227E-07
(PID.TID 0000.0001) %MON vort_r_max                   =   4.0939206164802E-07
(PID.TID 0000.0001) %MON vort_a_mean                  =  -2.5274807430513E-05
(PID.TID 0000.0001) %MON vort_a_sd                    =   7.3604530880143E-05
(PID.TID 0000.0001) %MON vort_p_mean                  =  -3.1845655841130E-05
(PID.TID 0000.0001) %MON vort_p_sd                    =   1.3162659805006E-04
(PID.TID 0000.0001) %MON surfExpan_theta_mean         =   1.8259631741313E-07
(PID.TID 0000.0001) %MON surfExpan_salt_mean          =  -8.2168473562587E-08
(PID.TID 0000.0001) // =======================================================
(PID.TID 0000.0001) // End MONITOR dynamic field statistics
(PID.TID 0000.0001) // =======================================================
(PID.TID 0000.0001) // =======================================================
(PID.TID 0000.0001) // Field Current uVel   at iteration         30
(PID.TID 0000.0001) // CMIN =         -1.736969753514393E-01
(PID.TID 0000.0001) // CMAX =          1.054943248418662E-01
(PID.TID 0000.0001) // CINT =          1.034041852567798E-02
(PID.TID 0000.0001) // SYMBOLS (CMIN->CMAX): -abcdefghijklmnopqrstuvwxyz+
(PID.TID 0000.0001) //                  0.0: .
(PID.TID 0000.0001) // RANGE I (Lo:Hi:Step):(     1:    90:     1)
(PID.TID 0000.0001) // RANGE J (Lo:Hi:Step):(    40:     1:    -1)
(PID.TID 0000.0001) // RANGE K (Lo:Hi:Step):(   1:   1:   1)
(PID.TID 0000.0001) // =======================================================
(PID.TID 0000.0001) K =   1
(PID.TID 0000.0001)                I=10      I=20      I=30      I=40      I=50      I=60      I=70      I=80      I=90
(PID.TID 0000.0001) |--J--|123456789|123456789|123456789|123456789|123456789|123456789|123456789|123456789|123456789|
(PID.TID 0000.0001)     40 qqqpq..ppppppqqqqqq...................................................................ppqq
(PID.TID 0000.0001)     39 pqqqpqqqqqqqqq....q......................................................qqq.........onnop
(PID.TID 0000.0001)     38 qqrrqqqqrrrrq............................................................qqpq.......onoopp
(PID.TID 0000.0001)     37 rsr...................................................................q....pp....oono..rrr
(PID.TID 0000.0001)     36 ts..........................................oop.....................pqqqqqqpop..poppqrrsst
(PID.TID 0000.0001)     35 rq..................................ppp...qpooop....ppqq............qq.....qqpqooqqqqqrsrr
(PID.TID 0000.0001)     34 ....................................qpp..pqqqppq..ppopqqq...................rqqqrrrrrrrr..
(PID.TID 0000.0001)     33 .....................................pppppqrqqqrqppqqqqqqrq..................rssstsrrqqpp.
(PID.TID 0000.0001)     32 .....................................oopoppqrrrrqqqqrrrrrrq.................suussssrqpoop.
(PID.TID 0000.0001)     31 .....................................pppppqqrrrrrrrrrsssssr...............rvzyvuussrqppp..
(PID.TID 0000.0001)     30 ....................................rsrrrrsrrsrrstsstttusrq.............prtuuvuuutssqqqq..
(PID.TID 0000.0001)     29 ..................................svvutsttttttuttuttuuuutrqp............tuuttsrrrsrrqqpp..
(PID.TID 0000.0001)     28 ................................qstuttssttttuuuttttuvvuusrppp..........sttsssrqqqqqqpppp..
(PID.TID 0000.0001)     27 ...............q...............qrqqqrqpqstttssssstttuutsrqooop....qqr..tttssrrqqqpppoo....
(PID.TID 0000.0001)     26 ...............qo............nmmnlklllmnpqqqpooppoppppponmmmnoqq..qqqrsrrrrqqpoonnnmll....
(PID.TID 0000.0001)     25 ...............omo....pq....lgjjidcdffghiijkjiijjiiiiihhgghikmopq....ommmmmmmjijjkihhi....
(PID.TID 0000.0001)     24 .............llllln..olp....jk..lb-abcbbccdeeeefhhggffeddcefiiklmmmn..lkhkhhihgghighhj....
(PID.TID 0000.0001)     23 .............kfhijl..ljn....jm...hfeeeddedefghjkllkkllklkijjkklkkkjkl.....jjljiihjjlmm....
(PID.TID 0000.0001)     22 q............ighhgjmllln....n..qnoollkkkkijkmmnooopppqqrqnnnopqqnommmp.......nkjilmoqqpqrr
(PID.TID 0000.0001)     21 ooo.........llljjjlnoopqp......trtrpppponnnopoooonqpprqpqponorrropnnpr.........mlnoppqpqsq
(PID.TID 0000.0001)     20 ooo........opqrrpnnpsrrrq.........qqrrrqqrqqrqopqpqppqpoqpompsqqnpnmoq..........omnooooqsp
(PID.TID 0000.0001)     19 pnn........rqsuwsnnnqqpponp....rs......prtttttrstrqpqqpqqommopnmlmmlmo............mnnopqpp
(PID.TID 0000.0001)     18 nmo........skmookhjkllklmmoqrttrr....rtqttttttstsrrqqqqpomllmkikkjjlmop...........nmmopomm
(PID.TID 0000.0001)     17 jkn..........khfedghilkklmppqtt......qqrrqqqqpoppqrrrqpommlkkiijiijkkmo..........qomllmjii
(PID.TID 0000.0001)     16 ghj.......s..nlkjjmkjopmmnpqqq........pqqqpppoopqqrrsqppomlkkkkkkjjllkmp.........rpnljighh
(PID.TID 0000.0001)     15 hggl.....po..srrrrurprurponpr..........qqrrrsrrsuuuuusrsrpooomnmmmlllkjko.......strpomkiii
(PID.TID 0000.0001)     14 kigi.....pmnqssuuuwtprtspommo..........qqrstuutuvwwxxwuuuusrronooonmnmkim......qttrrrpnmkk
(PID.TID 0000.0001)     13 nlkk.....sqpqrrsrsurqqrrpnmln..........sssrtttttuvvvwwvvwwvuurpqqqqpoonln.....prstrrsrqpnn
(PID.TID 0000.0001)     12 ponnorpprtrpqqppppqqqqqqpooooopqqq.....srsrrsrrrssttttustutttsrrqpqqqpon......qsssssssrrqp
(PID.TID 0000.0001)     11 qppqqorstutsssqpqpqqqqqqppppqqrqqqq...rrqqq..rrqqpqqrqrqqqrrqrrrqpqqqqpo.....qrsttttssssrq
(PID.TID 0000.0001)     10 rqqqrrttuvvwvvtssrrrrqrrrrqqqrrqrqpp..qqqqq..vtrpoppqqqpooopppqqqppqqqqq...qqqrrrsssttssss
(PID.TID 0000.0001)      9 tsssstttuvwwvvuuttutssstttssssrrrrqrrrrrrr..tusrqqqqqqppqpppppqqqqqqqqqp..rrsrsrrssststuut
(PID.TID 0000.0001)      8 uuuuuutstuvvvvuuuyzvvuuuutuuttttttuuuttttuwwtsrrssssssrsssrsrrrrrsrrrrrr..stsstuussssstuuu
(PID.TID 0000.0001)      7 uuuuttssttuuuuuuvx+zwvuutuuuttuuuvwwvvvvvvwvtttuvvuvvvuuusstssttttsttttvwuttuuuvvutssssttu
(PID.TID 0000.0001)      6 tttsssssstttttttuvwxvutttttsttuuuuuvttuuuvvvvvvvwvuvvvuuutstuuuuuuuuuuuvvwvvwvvvuttsssssst
(PID.TID 0000.0001)      5 rrrrrrrssssssrrsstttsssssrrssssssrssssttuvvwvvvvvuuuuttttstuuuttuuuuuuvvwvvvwwvutsssssssrr
(PID.TID 0000.0001)      4 qqqqqqqqrqqqqqqqqrrqqqqqqqqqqpppppqqqrrrsttttttttsssrrrrrsttttttttttttttsr...rsrrrrrrrrqqq
(PID.TID 0000.0001)      3 ppoopppppp.............................ppqqrrrrrrqqqqppqrrsssssrrrrrrrrqq...qrqqpqqqqrrqqp
(PID.TID 0000.0001)      2 ...........................................ppppppppooooppqqqqqpp...ppp......qpppppppqqq...
(PID.TID 0000.0001)      1 ..........................................................................................
(PID.TID 0000.0001) // =======================================================
(PID.TID 0000.0001) // END OF FIELD                                          =
(PID.TID 0000.0001) // =======================================================
(PID.TID 0000.0001) 
(PID.TID 0000.0001) // =======================================================
(PID.TID 0000.0001) // Field Current vVel   at iteration         30
(PID.TID 0000.0001) // CMIN =         -1.257665809998567E-01
(PID.TID 0000.0001) // CMAX =          1.195527584754485E-01
(PID.TID 0000.0001) // CINT =          9.085901462048341E-03
(PID.TID 0000.0001) // SYMBOLS (CMIN->CMAX): -abcdefghijklmnopqrstuvwxyz+
(PID.TID 0000.0001) //                  0.0: .
(PID.TID 0000.0001) // RANGE I (Lo:Hi:Step):(     1:    90:     1)
(PID.TID 0000.0001) // RANGE J (Lo:Hi:Step):(    40:     1:    -1)
(PID.TID 0000.0001) // RANGE K (Lo:Hi:Step):(   1:   1:   1)
(PID.TID 0000.0001) // =======================================================
(PID.TID 0000.0001) K =   1
(PID.TID 0000.0001)                I=10      I=20      I=30      I=40      I=50      I=60      I=70      I=80      I=90
(PID.TID 0000.0001) |--J--|123456789|123456789|123456789|123456789|123456789|123456789|123456789|123456789|123456789|
(PID.TID 0000.0001)     40 mmopo.mlmmnnnn...nn..................................................................mmmmm
(PID.TID 0000.0001)     39 nnoonmmmmmnoo...........................................................mnnn........kklmnn
(PID.TID 0000.0001)     38 noo.......................................................................mnn......lj.mnnn
(PID.TID 0000.0001)     37 op...................................................................om...mnm...kmoon.nnnn
(PID.TID 0000.0001)     36 oo.........................................oppo....................mno....llll.kknpppomnnn
(PID.TID 0000.0001)     35 ...................................mnon..oppppon...mnooo...................kkkllmnoooopo..
(PID.TID 0000.0001)     34 ....................................noo.nppooooo.mnnonnnm...................jjklmmnnoopm..
(PID.TID 0000.0001)     33 ....................................nonnopoooponnnnmmlkkklm.................jijmlklllllmm.
(PID.TID 0000.0001)     32 ....................................mmlmmmmmmmlklkjjjjiiijl................pmiijiiijjkkl..
(PID.TID 0000.0001)     31 ....................................jihhhhhhihhggfgggghhhik..............kjigfefghiijklm..
(PID.TID 0000.0001)     30 ...................................igecbcbbabcccccdeffghhhi............mliigfggghiijkklm..
(PID.TID 0000.0001)     29 .................................jiifdaaaa--abcdddeeghhijjij...........nkjjjjjjkllklmmmm..
(PID.TID 0000.0001)     28 ...............................pomlkiigeffeefffghihhikklmlkjk.........omlmmmmmnoppooon....
(PID.TID 0000.0001)     27 ..............nm..............rqqppppomlmlkjkkjklmmlmnoooonmll...noqr.pononnnmoqrrqqpn....
(PID.TID 0000.0001)     26 ..............ooq...........ouxwtsrrqqqqqponnnnopppoppppqpnonmno....srroppqqpqrstsrqok....
(PID.TID 0000.0001)     25 ..............rrtt...nmm...moq.wqppppprsrrqppopqrrqoppooooopoonmm....qropoprqqrstrpono....
(PID.TID 0000.0001)     24 ............nmprttp.monl...moo..fjlmnoprqqppponopqpononmnpqqppnllmoo.....knonoqsrpnmmr....
(PID.TID 0000.0001)     23 ............mopqqpl.ijij...kp...cgijjjlnonnonoopqsrqrsssuuutrpommopqp.......mosusqqrrr....
(PID.TID 0000.0001)     22 q...........jllnnlhgdfin......okhikllllllkkklmoqrtsttttvvsqqpnmmoopolk........ooopqrsspomo
(PID.TID 0000.0001)     21 kkj........kklkhgghiijnpo......n.monoopponnnopqrrqrtstuuussrpnnooonnon.........llpqrrrqoml
(PID.TID 0000.0001)     20 ijl.......nmonmifilopqrrp......n......pqponoooooooprrsttstttssssqqqqqp...........stsrqooqm
(PID.TID 0000.0001)     19 jjk.......rqwxxvrppqrstqomn...mlm.....utqoonnnmmonnoqrqrrqrrstuspoopro...........qpoonmnom
(PID.TID 0000.0001)     18 nmm.......s.+yzyvronpqponmkkmpo.....mnpnnnnnmmlmnmllnooonmnopqqqpmkmrrn..........qpooponop
(PID.TID 0000.0001)     17 poo.......q.ssrqojfgjmllkklmmo.......nnllmmmllkklkkklnnmkkmooooonllnqro.........lmnnoqrppq
(PID.TID 0000.0001)     16 ooo......rp.momllgeghhhhilnmm.........nnlllkkllkkjjklmljijlllmnomllmoppo........mmmlmopooo
(PID.TID 0000.0001)     15 mnnn....lon.loonnklnnjhijllll.........mnlkkkllmllklmmmlkjklkknppmkllmnoon......lmoommnnmnn
(PID.TID 0000.0001)     14 nnml....jlmmmnnnmlorpjikmmlkk.........nnmmmmnnnmnnoonnnoooomnqqonmmoooqqo.....lmnoponnnopo
(PID.TID 0000.0001)     13 rqpn....lnqpnnnnnnppnmnqrpmlm.........nppppoooooooonnopqqqqqssqpqqqqppqp.....kmoopqppqqrsr
(PID.TID 0000.0001)     12 tsqpmklooqsrooqrrqqqqpqrrqpppnnnnn....pqqpp.moopqpooooppqqqrsrpqrrrrqqqn.....oppqssrrsrrtt
(PID.TID 0000.0001)     11 ttssrprrrqrsrqtuvutsssttsttsrqrqppo..npqpoo.mmnopoooooopqqqrqppqsssrrqqn....lorsssssrrrrtt
(PID.TID 0000.0001)     10 tssstssrqooqsrstuvtssttssssssrrrqpqp.ooppo..kkmnoppppoopqqqqpppqsssrqqpn..nkkorstsssrrrrrs
(PID.TID 0000.0001)      9 qqqrrsqpomloqrqqsuqopqrrrqqrrqpppnoqpooonn.qmmnoooooppppppqpoooqrrqqqpml.ponmnoqqqrrqqqppq
(PID.TID 0000.0001)      8 ooppqqpoonmnnooopuupoopppppppppoonnnmllkklpqpnnnnmllllmnnnoomnnnpppppolj.trqpoopqppppppooo
(PID.TID 0000.0001)      7 nnnnnooonnnoonnnnqsrpoooooooooonmmoomlkjijmoonmnonnmlkklmmnonmmnnoonnnnnppnmnnnnnoonnooonn
(PID.TID 0000.0001)      6 onnmnnnoommmnnmmnoooonnnnmmmnnnnmlmnmlljiiklmmmnnmmnmlkkklmnnmlmmnmmmmmmmnnnmmmmmmmmmnoonn
(PID.TID 0000.0001)      5 nnmmmmmnnmmmmmmmmnnnnnnnnmmmmmmmlllllmllllllllnnmmmmmmmlllmnnmlmmnnmmmmnno..klmmmmmmnnnnnn
(PID.TID 0000.0001)      4 mmmmmmlmmm............................mnnnnmmmnnnnnnmmmmnnnnnmmmmmmmmmmmm...nnnmmmmnnnnnnn
(PID.TID 0000.0001)      3 ..........................................nnnnmmmmnmmmmnonnnmmmn..nmmm.....onnnmmmmnnnn...
(PID.TID 0000.0001)      2 ..........................................................................................
(PID.TID 0000.0001)      1 ..........................................................................................
(PID.TID 0000.0001) // =======================================================
(PID.TID 0000.0001) // END OF FIELD                                          =
(PID.TID 0000.0001) // =======================================================
(PID.TID 0000.0001) 
(PID.TID 0000.0001) // =======================================================
(PID.TID 0000.0001) // Field Current theta  at iteration         30
(PID.TID 0000.0001) // CMIN =         -2.007813179563414E+00
(PID.TID 0000.0001) // CMAX =          2.997904612240873E+01
(PID.TID 0000.0001) // CINT =          1.184698492665635E+00
(PID.TID 0000.0001) // SYMBOLS (CMIN->CMAX): -abcdefghijklmnopqrstuvwxyz+
(PID.TID 0000.0001) //                  0.0: .
(PID.TID 0000.0001) // RANGE I (Lo:Hi:Step):(     1:    90:     1)
(PID.TID 0000.0001) // RANGE J (Lo:Hi:Step):(    40:     1:    -1)
(PID.TID 0000.0001) // RANGE K (Lo:Hi:Step):(   1:   1:   1)
(PID.TID 0000.0001) // =======================================================
(PID.TID 0000.0001) K =   1
(PID.TID 0000.0001)                I=10      I=20      I=30      I=40      I=50      I=60      I=70      I=80      I=90
(PID.TID 0000.0001) |--J--|123456789|123456789|123456789|123456789|123456789|123456789|123456789|123456789|123456789|
(PID.TID 0000.0001)     40 aabccbaa-----aacdddbbbbbbbbbbbbbbbbbbbbbbbbbbbbbbbbbbbbbbbbbbbbbbbbbbbbbbbbbbbbbbbbbbbbaaa
(PID.TID 0000.0001)     39 bccddcccbba---bbbddbbbbbbbbbbbbbbbbbbbbbbbbbbbbbbbbbbbbbbbbbbbbbbbbbbbbb----bbbbbbbbbbaaab
(PID.TID 0000.0001)     38 eeffeecddccaabbbbbbbbbbbbbbbbbbbbbbbbbbbbbbbbbbbbbbbbbbbbbbbbbbbbbbbbbbb-----bbbbbbcaaabcd
(PID.TID 0000.0001)     37 fggbbbbbbbbbbbbbbbbbbbbbbbbbbbbbbbbbbbbbbbbbbbbbbbbbbbbbbbbbbbbbbbbbbbbbbbbabbbbdccdebddee
(PID.TID 0000.0001)     36 hgbbbbbbbbbbbbbbbbbbbbbbbbbbbbbbbbbbbbbbbbbcba-bbbbbbbbbbbbbbbbbbbbccccbbbbccdbdefgghhhhhh
(PID.TID 0000.0001)     35 ggbbbbbbbbbbbbbbbbbbbbbbbbbbbbbbbbba---bbbcccccbbbbeeeefbbbbbbbbbbbbbbbbbbbcdeeeefghiiiihh
(PID.TID 0000.0001)     34 bbbbbbbbbbbbbbbbbbbbbbbbbbbbbbbbbbb----bbcddddddbddeeffggbbbbbbbbbbbbbbbbbbcaceefghijjjjbb
(PID.TID 0000.0001)     33 bbbbbbbbbbbbbbbbbbbbbbbbbbbbbbbbbbbb-abbccdddddeeeffffgghhibbbbbbbbbbbbbbbbbaadhijjkkkkkkb
(PID.TID 0000.0001)     32 bbbbbbbbbbbbbbbbbbbbbbbbbbbbbbbbbbbb-abccdeeeeffggggghhhiiibbbbbbbbbbbbbbbbcbbdjlmmmlllkkb
(PID.TID 0000.0001)     31 bbbbbbbbbbbbbbbbbbbbbbbbbbbbbbbbbbbbdfggghhiiiiiiiijjkkkkkkbbbbbbbbbbbbbbgjljilnnnnnmmmmbb
(PID.TID 0000.0001)     30 bbbbbbbbbbbbbbbbbbbbbbbbbbbbbbbbbbblkkllllllllllllllmmmmmmlbbbbbbbbbbbbnnopqpppppppooonobb
(PID.TID 0000.0001)     29 bbbbbbbbbbbbbbbbbbbbbbbbbbbbbbbbboooooooooooooooooooopppoonmbbbbbbbbbbbqqrrrrqqqqqqqppopbb
(PID.TID 0000.0001)     28 bbbbbbbbbbbbbbbbbbbbbbbbbbbbbbboqqqqqqqqqqqqqqqqqqqqqrrqqponobbbbbbbbbsssssssrrrrrrqqqqpbb
(PID.TID 0000.0001)     27 bbbbbbbbbbbbbbvvbbbbbbbbbbbbbbrrsssstssssttttttstttssssrrrqppqbbbssttbuuuuttuttttsssrrbbbb
(PID.TID 0000.0001)     26 bbbbbbbbbbbbbbvuubbbbbbbbbbbttuuuuuuvvvvvvvuuuuuuuuuuttsssrrrstubttvwvvvvvvvvuuuutssrqbbbb
(PID.TID 0000.0001)     25 bbbbbbbbbbbbbbvvvwbbbwwxbbbuuvwwvwwwwwwwwwwwvvvvvvvvuuuttttttuvwwbbbwwwwwwvvvvvuuutsrpbbbb
(PID.TID 0000.0001)     24 bbbbbbbbbbbbwvvwxyybwwwxbbbwwwbxxxxxxxxxxxwwwwwwwwvvvvvvvuuvvvwwwvvvbxwwwwwwwwvvvuutsrbbbb
(PID.TID 0000.0001)     23 bbbbbbbbbbbbwwwxxyzbxxxxbbbxxwbbyyyyyyxxxxxxxxxxxxxxxxxxxwxxxxxwwxwwwbbbbwwwwwwwwvvvvvbbbb
(PID.TID 0000.0001)     22 wbbbbbbbbbbbxxxyyyyyxxyybbbxxbyyzzzzzzzzzyyyyyyyyyxyxyxwwwwwxxwwwwwwwwbbbbbbyxxxxxxxxyxxww
(PID.TID 0000.0001)     21 xwwbbbbbbbbxxxxyyzzyyzz++bbbbbzyzzzzzzz++zzzyzyyyyyyyyxxwwwwwwwvwvvvvvbbbbbbbbyyyyyyyyyxxx
(PID.TID 0000.0001)     20 xwwbbbbbbbyxyxyyyzzzzzz++bbbbbbzbzzzzz++++zzzzzzzyyyyyxxxwxxxwwwwwvvvvbbbbbbbbbyyyyyyyyxxx
(PID.TID 0000.0001)     19 wvvbbbbbbbzzzzyyyyyzzzzzzzzbbbzzzbbbbb++++++z++z+zzzyyyyxxxxxxwwwwwwvvbbbbbbbbbbbyyyxxwwxx
(PID.TID 0000.0001)     18 vutbbbbbbbzzzyyyyyyzyyyzzzzzzz+zzbbb++++++++++++++zzzzzyyyyxxwwwvvwvvvubbbbbbbbbbyyxxwvvww
(PID.TID 0000.0001)     17 uutbbbbbbbzbzyxxyxxyyyyyyyyyyzzbbbbbzzzzzzzzzzzzzzzzzzyyyyyxxwwvvvvuuuvbbbbbbbbbyyyyxwuuvv
(PID.TID 0000.0001)     16 utsbbbbbbzzbzyyxxxxxxxxwwxxxxzbbbbbbbyyyyyyzzyyzzyyyzyyyyyyyxxwwvvvuutttbbbbbbbbyyyyywvvvu
(PID.TID 0000.0001)     15 utsrbbbbxyybxxxxxwwwwwwwvvwwxbbbbbbbbbxxxxxxxxxxxxxxyyyyyyyyxxwwwvuuutsssbbbbbbxxyxxyxxwvu
(PID.TID 0000.0001)     14 utsqbbbbxyxwxxwwwxwwvuuuuuuuubbbbbbbbbwwwwwwwwwwwxxxxxwwxxxxxwwwvvvutssssbbbbbwwxxxxxxwwvu
(PID.TID 0000.0001)     13 uttrbbbbwxwvwwvuvvvvvuuttttttbbbbbbbbbvvvvvvvvvvvvuuuvvvvwwxxwvvvuuuusssqbbbbvwwwwwwwwwvvu
(PID.TID 0000.0001)     12 tstsststuuuttttssssstutrrssssqqrrqbbbbuuuutttttsssssssssstuuuttttsstssrqbbbbbuvvuuttuutttt
(PID.TID 0000.0001)     11 qpqqssssrrrrrrrqqpppprqppqpppqqqqqqbbtttsssbrrqqqrrrrqrrqrrrqqqrrqrsrrqpbbbbprtssrrrrrqqqq
(PID.TID 0000.0001)     10 mmlmoooponoonoonnnnmmnmmmmmlmnnooooobqrrqqqbpqqqqqpppppppppooooopooopppobbonppppoonnooonnm
(PID.TID 0000.0001)      9 jiiijjjjiijjijjjiijjjjiiiijjijkllnnmmnoooobnnnnoooonnnnoonmmlmmmmmllmmmmbmnmnnmmllkjkkkjii
(PID.TID 0000.0001)      8 ffffffggffghhhgggggghhgggghhhiijjjkkjklllmlllllllllmmllllkkkjjklkkkkkkljbllkkjjiihhgggffff
(PID.TID 0000.0001)      7 dddeeeefffeefgfffffffeeeefgggggghhghhiijjkjjjkkkjiiihhiiiiiiiiiiiiiiijijijjiihhgfeeeeeeedd
(PID.TID 0000.0001)      6 cccddeeeeeddeeeeeeeeeeeeeeeedeefeeefffgghhhhhhiihgfeeffffggffffghhhhhhhhhhhggffedddddccccc
(PID.TID 0000.0001)      5 ccddddddddddeeeeeedddddddddddeeeeeeeeeeefffffffffedccddddeeeeeeeeffffffefffeedddcccccccccc
(PID.TID 0000.0001)      4 dddddcccccccccccccccccbbbbbbccccccccccccddddcccccccccccccccccddddddddddddcbbbaabcccccccccc
(PID.TID 0000.0001)      3 bccbbbaaaabbbbbbbbbbbbbbbbbbbbbbbbbbbbbbbbbbbbbbbbbbbbbbbbbbbbbbbbbbbbbbbbbbaaaabbcccccbbb
(PID.TID 0000.0001)      2 bbbbbbbbbbbbbbbbbbbbbbbbbbbbbbbbbbbbbbbbbbbccccbbbbbaaaaaaaaaaaabbaaaabbbbbaaaaabbbbbbbbbb
(PID.TID 0000.0001)      1 bbbbbbbbbbbbbbbbbbbbbbbbbbbbbbbbbbbbbbbbbbbbbbbbbbbbbbbbbbbbbbbbbbbbbbbbbbbbbbbbbbbbbbbbbb
(PID.TID 0000.0001) // =======================================================
(PID.TID 0000.0001) // END OF FIELD                                          =
(PID.TID 0000.0001) // =======================================================
(PID.TID 0000.0001) 
(PID.TID 0000.0001) // =======================================================
(PID.TID 0000.0001) // Field Current etaN   at iteration         30
(PID.TID 0000.0001) // CMIN =         -1.709927357129934E+00
(PID.TID 0000.0001) // CMAX =          8.415486666271835E-01
(PID.TID 0000.0001) // CINT =          9.449911199100434E-02
(PID.TID 0000.0001) // SYMBOLS (CMIN->CMAX): -abcdefghijklmnopqrstuvwxyz+
(PID.TID 0000.0001) //                  0.0: .
(PID.TID 0000.0001) // RANGE I (Lo:Hi:Step):(    -1:    92:     1)
(PID.TID 0000.0001) // RANGE J (Lo:Hi:Step):(    42:    -1:    -1)
(PID.TID 0000.0001) // RANGE K (Lo:Hi:Step):(   1:   1:   1)
(PID.TID 0000.0001) // =======================================================
(PID.TID 0000.0001) K =   1
(PID.TID 0000.0001)                I=8       I=18      I=28      I=38      I=48      I=58      I=68      I=78      I=88
(PID.TID 0000.0001) |--J--|101234567|901234567|901234567|901234567|901234567|901234567|901234567|901234567|901234567|9012
(PID.TID 0000.0001)     42 ............................................-aaabbbcccdddddddcccdd..dddd.....--aaabbbbbbb.....
(PID.TID 0000.0001)     41 ..............................................................................................
(PID.TID 0000.0001)     40 ppooopp.nnnnnnnnnnnnn..................................................................qqpppoo
(PID.TID 0000.0001)     39 oooonoooonnnnnoo...mm.....................................................nnnn........qqppoooo
(PID.TID 0000.0001)     38 oooopppoooooooo...........................................................nnnnn......qpooooooo
(PID.TID 0000.0001)     37 ooopp..................................................................pq...mnn...poooo.noooop
(PID.TID 0000.0001)     36 oppq.........................................ppqq....................oppqponmmnm.pnmnnoppooppq
(PID.TID 0000.0001)     35 qqqq.................................llmm..ooopppp...srrss...........opp....nllllllllmnoooqqqq
(PID.TID 0000.0001)     34 .....................................mllm.oooooppp.qqppqqst..................nmlkkkllmnops....
(PID.TID 0000.0001)     33 p.....................................mmmnnooooopppppppqqrrrs.................llklmmnoppppp...
(PID.TID 0000.0001)     32 p.....................................mnnmnnooopqqqqqqqrrrrrr................gkllnoppqqqppp...
(PID.TID 0000.0001)     31 ......................................lmnnooopqqrrrrrrrssssss..............mmnoooppppqpppp....
(PID.TID 0000.0001)     30 .....................................nopppqqrrrrsssssstttttts............kmnprrsssrrrqqqqq....
(PID.TID 0000.0001)     29 ...................................qrrttttttuttttuuuuttuuuutts...........pqrssssssssrrqqqq....
(PID.TID 0000.0001)     28 .................................ttuuvvvvvvvvvvvvvvvuuuuuuuutts.........rrssssssssssrrrqqr....
(PID.TID 0000.0001)     27 ................ss..............wvvvvvwwwwwwwwwwwvvvvvvvvuuuttss...uttt.ttstsssssrrrrrqq......
(PID.TID 0000.0001)     26 ................sss...........xwxxwwwwwwwwwxwwwwwwvwwvvvvuuuttttst.uttuvuuuuttttsssrrrqq......
(PID.TID 0000.0001)     25 ................tstu...vvu...xxwxxwwwwwwwwxwwwwwwwwvvvvvvuuuttttttu...vvvvuuuuttssssrrqp......
(PID.TID 0000.0001)     24 ..............tutttvv.wvvv...xxw.zxwwwwwwwwwwwwwwwwvvvvvuuuttttttuuttt.vvvvuuutttsssrrqq......
(PID.TID 0000.0001)     23 ..............ttttuuv.vvvv...yxw..ywwwwwwwwxxwwwwwwwwvvvvuuuuuuuutuuttt....uuuuttsssrrrs......
(PID.TID 0000.0001)     22 rrr...........ttuuuuuuvvvv...yx.vwwwwwwwwwxxxxxwwwwwvvvvvuuuuuuuuttutuuu......utttssssssssrrr.
(PID.TID 0000.0001)     21 rrrrr........uttuuuvvvvvvvv.....vvvvvvvvwwwwwwwwwvwwwvvvvuuuutttttttttuu........utttsssrrrrrrr
(PID.TID 0000.0001)     20 rrrrr.......vuuuuuuvvvvvwvv......v.vvvvvwwwwwwwwwwwwwwwwvvvvuuuuttttttuu.........ttttsssrrrrrr
(PID.TID 0000.0001)     19 rrqqq.......vvvvvvvvvvvwwwwvw...wvv.....wxxxxxxxxxxxwxwwwwvvvvuuututtttt...........tttssrrrrqq
(PID.TID 0000.0001)     18 qqqpq.......vvxwwvvwwwwvwwwvvwwwwvv...zzyyyxxxxxxxxxxxwwwwwvvvvuuuuuttttt..........uttssrqqqqp
(PID.TID 0000.0001)     17 qqqpp.......w.zxwwwwwwwwwvvvvvvvv.....yyyyxxxxxxxxxxxxwwwwwvvvvvuuttttttt.........vuttssrqqqqp
(PID.TID 0000.0001)     16 rrqqp......zx.zyxxxwwwvwwvvvvvvv.......yyxxxxxxwxxxxxwwwwwwwwwvvvuuuuuttts........vutttssrrrqq
(PID.TID 0000.0001)     15 srrqqp....+zx.zyyyxwxxvvwvvuuuu.........yxwwwwxwwwwwwwwwwwwwwwwwvvuuuuutssr......vvuuttttssrrq
(PID.TID 0000.0001)     14 sssrqp....zzxxyyxxwwxwuuuuuutts.........xxwwwwwwwvwwwvwwwwwxwwxwvvvvvuuutsr.....uuuuttutttsssr
(PID.TID 0000.0001)     13 ttsrqq....yzyxxxwwvvvuuuuvutsss.........wwwvvvvuuuuuutuuvvvvvwxwvvvvvuuttss....tttttttuuuuttsr
(PID.TID 0000.0001)     12 ttsrrqpptvxyxwwwwvvvuuuuuutssssssrrr....vvuuuutttttssstttttuuuvuvvvuuuutsr.....sssstssttttttsr
(PID.TID 0000.0001)     11 srrrqqrsttuvwwwxxwvvuuttttsssrrrrrrrr..sttttt.stsssrrsssssssttttuvutttttsr....oqqqrrrqrrrssrrr
(PID.TID 0000.0001)     10 ppppoooppppqrrrtutsrrrrrqqrqqqqqqqqqqp.qrssst.qrrrrrrrssstsssssstutsrrrrrr..ijnpoonooooopppppp
(PID.TID 0000.0001)      9 lmmmmmllkkllmnnnnnnmmmnonnnnnnnooppqrpopqqrs.mnopqrrrrrrssttsrrrsssrqqqqqq.jjklmmmllkkkllllmmm
(PID.TID 0000.0001)      8 ghiiiihhghhhijkjjjljiijjjjjjjjkkllmmnnnooppqpnmnoopppqqqqqqqqppqqrrqpppppr.jjjjjjihhhghhhgghii
(PID.TID 0000.0001)      7 eeeeedeeeefffggghhhhgeeefffgggghhhiihghijklmmllllllkkkklmnmmnmmnooooonnnnnlkjjihggffeeefeeeeee
(PID.TID 0000.0001)      6 ccbbbcdddddeeeeeefffedddddddeeeeeeeeeddeefhjjjjiiihggffghijkkkkkllllllkkkkjihgfedddddddddcccbb
(PID.TID 0000.0001)      5 bbbbbcccddcccccdddddccbbbbbbccccccccccccccdefffffeddddddefghhihhhiihhhhhggfedccbbbbbbbbbbbbbbb
(PID.TID 0000.0001)      4 bbbbbbbbcccccccccccccccbbbbbbbbbbbbbbbbbbbbbbbbccbbbbbccdeeefffffffffeeeedde..-aaaaaaabbbbbbbb
(PID.TID 0000.0001)      3 bbbccccccccc............................bbbaaaabbbbbbbccdddddddddddddddddee..----aaabbbbbbbbbc
(PID.TID 0000.0001)      2 ............................................-aaabbbcccdddddddcccdd..dddd.....--aaabbbbbbb.....
(PID.TID 0000.0001)      1 ..............................................................................................
(PID.TID 0000.0001)      0 ppooopp.nnnnnnnnnnnnn..................................................................qqpppoo
(PID.TID 0000.0001)     -1 oooonoooonnnnnoo...mm.....................................................nnnn........qqppoooo
(PID.TID 0000.0001) // =======================================================
(PID.TID 0000.0001) // END OF FIELD                                          =
(PID.TID 0000.0001) // =======================================================
(PID.TID 0000.0001) 
(PID.TID 0000.0001)  MDS_WRITE_FIELD: it,rec,kS,kL,kH=      30     1  15   1  15 file=U.0000000030
(PID.TID 0000.0001)  MDS_WRITE_FIELD: it,rec,kS,kL,kH=      30     1  15   1  15 file=V.0000000030
(PID.TID 0000.0001)  MDS_WRITE_FIELD: it,rec,kS,kL,kH=      30     1  15   1  15 file=T.0000000030
(PID.TID 0000.0001)  MDS_WRITE_FIELD: it,rec,kS,kL,kH=      30     1  15   1  15 file=S.0000000030
(PID.TID 0000.0001)  MDS_WRITE_FIELD: it,rec,kS,kL,kH=      30     1   1   1   1 file=Eta.0000000030
(PID.TID 0000.0001)  MDS_WRITE_FIELD: it,rec,kS,kL,kH=      30     1  15   1  15 file=W.0000000030
(PID.TID 0000.0001)  MDS_WRITE_FIELD: it,rec,kS,kL,kH=      30     1  15   1  15 file=PH.0000000030
(PID.TID 0000.0001)  MDS_WRITE_FIELD: it,rec,kS,kL,kH=      30     1   1   1   1 file=PHL.0000000030
(PID.TID 0000.0001)  MDS_WRITE_FIELD: it,rec,kS,kL,kH=      30     1   1   1   1 file=ETAtave.0000000030
(PID.TID 0000.0001)  MDS_WRITE_FIELD: it,rec,kS,kL,kH=      30     1  15   1  15 file=Ttave.0000000030
(PID.TID 0000.0001)  MDS_WRITE_FIELD: it,rec,kS,kL,kH=      30     1  15   1  15 file=Stave.0000000030
(PID.TID 0000.0001)  MDS_WRITE_FIELD: it,rec,kS,kL,kH=      30     1  15   1  15 file=uVeltave.0000000030
(PID.TID 0000.0001)  MDS_WRITE_FIELD: it,rec,kS,kL,kH=      30     1  15   1  15 file=vVeltave.0000000030
(PID.TID 0000.0001)  MDS_WRITE_FIELD: it,rec,kS,kL,kH=      30     1  15   1  15 file=wVeltave.0000000030
(PID.TID 0000.0001)  MDS_WRITE_FIELD: it,rec,kS,kL,kH=      30     1   1   1   1 file=Eta2tave.0000000030
(PID.TID 0000.0001)  MDS_WRITE_FIELD: it,rec,kS,kL,kH=      30     1  15   1  15 file=UTtave.0000000030
(PID.TID 0000.0001)  MDS_WRITE_FIELD: it,rec,kS,kL,kH=      30     1  15   1  15 file=VTtave.0000000030
(PID.TID 0000.0001)  MDS_WRITE_FIELD: it,rec,kS,kL,kH=      30     1  15   1  15 file=WTtave.0000000030
(PID.TID 0000.0001)  MDS_WRITE_FIELD: it,rec,kS,kL,kH=      30     1  15   1  15 file=UStave.0000000030
(PID.TID 0000.0001)  MDS_WRITE_FIELD: it,rec,kS,kL,kH=      30     1  15   1  15 file=VStave.0000000030
(PID.TID 0000.0001)  MDS_WRITE_FIELD: it,rec,kS,kL,kH=      30     1  15   1  15 file=WStave.0000000030
(PID.TID 0000.0001)  MDS_WRITE_FIELD: it,rec,kS,kL,kH=      30     1  15   1  15 file=TTtave.0000000030
(PID.TID 0000.0001)  MDS_WRITE_FIELD: it,rec,kS,kL,kH=      30     1  15   1  15 file=UUtave.0000000030
(PID.TID 0000.0001)  MDS_WRITE_FIELD: it,rec,kS,kL,kH=      30     1  15   1  15 file=VVtave.0000000030
(PID.TID 0000.0001)  MDS_WRITE_FIELD: it,rec,kS,kL,kH=      30     1  15   1  15 file=UVtave.0000000030
(PID.TID 0000.0001)  MDS_WRITE_FIELD: it,rec,kS,kL,kH=      30     1  15   1  15 file=Tdiftave.0000000030
(PID.TID 0000.0001)  MDS_WRITE_FIELD: it,rec,kS,kL,kH=      30     1  15   1  15 file=PhHytave.0000000030
(PID.TID 0000.0001)  MDS_WRITE_FIELD: it,rec,kS,kL,kH=      30     1   1   1   1 file=PHLtave.0000000030
(PID.TID 0000.0001)  MDS_WRITE_FIELD: it,rec,kS,kL,kH=      30     1   1   1   1 file=uFluxtave.0000000030
(PID.TID 0000.0001)  MDS_WRITE_FIELD: it,rec,kS,kL,kH=      30     1   1   1   1 file=vFluxtave.0000000030
(PID.TID 0000.0001)  MDS_WRITE_FIELD: it,rec,kS,kL,kH=      30     1   1   1   1 file=tFluxtave.0000000030
(PID.TID 0000.0001)  MDS_WRITE_FIELD: it,rec,kS,kL,kH=      30     1   1   1   1 file=sFluxtave.0000000030
(PID.TID 0000.0001)  MDS_WRITE_FIELD: it,rec,kS,kL,kH=      30     1   1   1   1 file=PHL2tave.0000000030
(PID.TID 0000.0001)  MDS_WRITE_FIELD: it,rec,kS,kL,kH=      30     1  15   1  15 file=Convtave.0000000030
(PID.TID 0000.0001) // Time-average data written, t-step        30
(PID.TID 0000.0001) 
(PID.TID 0000.0001)  MDS_WRITE_FIELD: it,rec,kS,kL,kH=      30     1  15   1  15 file=GM_Kwx-T.0000000030
(PID.TID 0000.0001)  MDS_WRITE_FIELD: it,rec,kS,kL,kH=      30     1  15   1  15 file=GM_Kwy-T.0000000030
(PID.TID 0000.0001)  MDS_WRITE_FIELD: it,rec,kS,kL,kH=      30     1  15   1  15 file=GM_Kwz-T.0000000030
(PID.TID 0000.0001)  MDS_WRITE_FIELD: it,rec,kS,kL,kH=      30     1  15   1  15 file=pickup_cd.0000000030
(PID.TID 0000.0001)  MDS_WRITE_FIELD: it,rec,kS,kL,kH=      30     2  15   1  15 file=pickup_cd.0000000030
(PID.TID 0000.0001)  MDS_WRITE_FIELD: it,rec,kS,kL,kH=      30     3  15   1  15 file=pickup_cd.0000000030
(PID.TID 0000.0001)  MDS_WRITE_FIELD: it,rec,kS,kL,kH=      30     4  15   1  15 file=pickup_cd.0000000030
(PID.TID 0000.0001)  MDS_WRITE_FIELD: it,rec,kS,kL,kH=      30    61   1   1   1 file=pickup_cd.0000000030
(PID.TID 0000.0001)  MDS_WRITE_FIELD: it,rec,kS,kL,kH=      30    -1  15   1  15 file=pickup.0000000030
(PID.TID 0000.0001)  MDS_WRITE_FIELD: it,rec,kS,kL,kH=      30    -2  15   1  15 file=pickup.0000000030
(PID.TID 0000.0001)  MDS_WRITE_FIELD: it,rec,kS,kL,kH=      30    -3  15   1  15 file=pickup.0000000030
(PID.TID 0000.0001)  MDS_WRITE_FIELD: it,rec,kS,kL,kH=      30    -4  15   1  15 file=pickup.0000000030
(PID.TID 0000.0001)  MDS_WRITE_FIELD: it,rec,kS,kL,kH=      30    -5  15   1  15 file=pickup.0000000030
(PID.TID 0000.0001)  MDS_WRITE_FIELD: it,rec,kS,kL,kH=      30    -6  15   1  15 file=pickup.0000000030
(PID.TID 0000.0001)  MDS_WRITE_FIELD: it,rec,kS,kL,kH=      30    -7  15   1  15 file=pickup.0000000030
(PID.TID 0000.0001)  MDS_WRITE_FIELD: it,rec,kS,kL,kH=      30    -8  15   1  15 file=pickup.0000000030
(PID.TID 0000.0001)  MDS_WRITE_FIELD: it,rec,kS,kL,kH=      30  -121   1   1   1 file=pickup.0000000030
(PID.TID 0000.0001)  MDS_WRITE_FIELD: it,rec,kS,kL,kH=      30  -122   1   1   1 file=pickup.0000000030
(PID.TID 0000.0001)  MDS_WRITE_FIELD: it,rec,kS,kL,kH=      30  -123   1   1   1 file=pickup.0000000030
(PID.TID 0000.0001) %CHECKPOINT        30 0000000030
 EXTERNAL_FIELDS_LOAD,        30 : iP,iLd,i0,i1=    1    2    1    2 ; Wght=  0.5000000000  0.5000000000
 EXTERNAL_FIELDS_LOAD: (fu0,1),fu,fv= -3.5633E-02 -1.4435E-02 -2.5034E-02 -3.7446E-02
 EXTERNAL_FIELDS_LOAD: SST,SSS,Q,E-P=  2.1328E-01  3.4568E+01  2.5313E+02  1.0007E-05
DEBUG_STATS_RL:          Uvel (THERMODYNAMICS)  min= -1.73696975351439E-01
DEBUG_STATS_RL:          Uvel (THERMODYNAMICS)  max=  1.05494324841866E-01
DEBUG_STATS_RL:          Uvel (THERMODYNAMICS) mean=  2.56965159305897E-03
DEBUG_STATS_RL:          Uvel (THERMODYNAMICS) S.D.=  1.90971517867680E-02
DEBUG_STATS_RL:          Vvel (THERMODYNAMICS)  min= -1.25766580999857E-01
DEBUG_STATS_RL:          Vvel (THERMODYNAMICS)  max=  1.19552758475448E-01
DEBUG_STATS_RL:          Vvel (THERMODYNAMICS) mean=  4.87049306086873E-04
DEBUG_STATS_RL:          Vvel (THERMODYNAMICS) S.D.=  1.35653179250896E-02
DEBUG_STATS_RL:          Wvel (THERMODYNAMICS)  min= -1.12180461060397E-04
DEBUG_STATS_RL:          Wvel (THERMODYNAMICS)  max=  1.06395006376334E-04
DEBUG_STATS_RL:          Wvel (THERMODYNAMICS) mean= -2.75926863183829E-08
DEBUG_STATS_RL:          Wvel (THERMODYNAMICS) S.D.=  1.26101537006729E-05
DEBUG_STATS_RL:         Theta (THERMODYNAMICS)  min= -2.00707340656736E+00
DEBUG_STATS_RL:         Theta (THERMODYNAMICS)  max=  2.99969915799058E+01
DEBUG_STATS_RL:         Theta (THERMODYNAMICS) mean=  3.21927205055264E+00
DEBUG_STATS_RL:         Theta (THERMODYNAMICS) S.D.=  5.85890955942675E+00
DEBUG_STATS_RL:          Salt (THERMODYNAMICS)  min=  9.99999999999998E-03
DEBUG_STATS_RL:          Salt (THERMODYNAMICS)  max=  3.74622386611013E+01
DEBUG_STATS_RL:          Salt (THERMODYNAMICS) mean=  1.88549109638503E+01
DEBUG_STATS_RL:          Salt (THERMODYNAMICS) S.D.=  1.73004186046578E+01
DEBUG_STATS_RL:         GtNm1 (THERMODYNAMICS)  min= -4.12618679009219E-06
DEBUG_STATS_RL:         GtNm1 (THERMODYNAMICS)  max=  2.48488027084349E-06
DEBUG_STATS_RL:         GtNm1 (THERMODYNAMICS) mean=  4.81921248780471E-09
DEBUG_STATS_RL:         GtNm1 (THERMODYNAMICS) S.D.=  2.14463711809627E-07
DEBUG_STATS_RL:         GsNm1 (THERMODYNAMICS)  min= -8.66990144997799E-07
DEBUG_STATS_RL:         GsNm1 (THERMODYNAMICS)  max=  6.37197110169833E-07
DEBUG_STATS_RL:         GsNm1 (THERMODYNAMICS) mean= -6.30520380909716E-10
DEBUG_STATS_RL:         GsNm1 (THERMODYNAMICS) S.D.=  1.96756401357448E-08
DEBUG_STATS_RL:                EtaN (DYNAMICS)  min= -1.70992735712993E+00
DEBUG_STATS_RL:                EtaN (DYNAMICS)  max=  8.41548666627183E-01
DEBUG_STATS_RL:                EtaN (DYNAMICS) mean= -1.57726225152776E-01
DEBUG_STATS_RL:                EtaN (DYNAMICS) S.D.=  6.32521669698416E-01
DEBUG_STATS_RL:                Uvel (DYNAMICS)  min= -1.73696975351439E-01
DEBUG_STATS_RL:                Uvel (DYNAMICS)  max=  1.05494324841866E-01
DEBUG_STATS_RL:                Uvel (DYNAMICS) mean=  2.56965159305897E-03
DEBUG_STATS_RL:                Uvel (DYNAMICS) S.D.=  1.90971517867680E-02
DEBUG_STATS_RL:                Vvel (DYNAMICS)  min= -1.25766580999857E-01
DEBUG_STATS_RL:                Vvel (DYNAMICS)  max=  1.19552758475448E-01
DEBUG_STATS_RL:                Vvel (DYNAMICS) mean=  4.87049306086873E-04
DEBUG_STATS_RL:                Vvel (DYNAMICS) S.D.=  1.35653179250896E-02
DEBUG_STATS_RL:                Wvel (DYNAMICS)  min= -1.12180461060397E-04
DEBUG_STATS_RL:                Wvel (DYNAMICS)  max=  1.06395006376334E-04
DEBUG_STATS_RL:                Wvel (DYNAMICS) mean= -2.75926863183829E-08
DEBUG_STATS_RL:                Wvel (DYNAMICS) S.D.=  1.26101537006729E-05
DEBUG_STATS_RL:               Theta (DYNAMICS)  min= -2.00707340656736E+00
DEBUG_STATS_RL:               Theta (DYNAMICS)  max=  2.99969915799058E+01
DEBUG_STATS_RL:               Theta (DYNAMICS) mean=  3.21927205055264E+00
DEBUG_STATS_RL:               Theta (DYNAMICS) S.D.=  5.85890955942675E+00
DEBUG_STATS_RL:                Salt (DYNAMICS)  min=  9.99999999999998E-03
DEBUG_STATS_RL:                Salt (DYNAMICS)  max=  3.74622386611013E+01
DEBUG_STATS_RL:                Salt (DYNAMICS) mean=  1.88549109638503E+01
DEBUG_STATS_RL:                Salt (DYNAMICS) S.D.=  1.73004186046578E+01
DEBUG_STATS_RL:                  Gu (DYNAMICS)  min= -1.75632452940275E-01
DEBUG_STATS_RL:                  Gu (DYNAMICS)  max=  1.00319545606738E-01
DEBUG_STATS_RL:                  Gu (DYNAMICS) mean=  2.62243551158070E-03
DEBUG_STATS_RL:                  Gu (DYNAMICS) S.D.=  1.97896321647973E-02
DEBUG_STATS_RL:                  Gv (DYNAMICS)  min= -1.28972207468910E-01
DEBUG_STATS_RL:                  Gv (DYNAMICS)  max=  1.11731131971402E-01
DEBUG_STATS_RL:                  Gv (DYNAMICS) mean=  2.59258863341405E-03
DEBUG_STATS_RL:                  Gv (DYNAMICS) S.D.=  1.43003839628605E-02
DEBUG_STATS_RL:               GuNm1 (DYNAMICS)  min= -7.92498685742639E-06
DEBUG_STATS_RL:               GuNm1 (DYNAMICS)  max=  7.59404120385770E-06
DEBUG_STATS_RL:               GuNm1 (DYNAMICS) mean= -1.67037096882269E-08
DEBUG_STATS_RL:               GuNm1 (DYNAMICS) S.D.=  1.19963374910965E-06
DEBUG_STATS_RL:               GvNm1 (DYNAMICS)  min= -1.08521064430923E-05
DEBUG_STATS_RL:               GvNm1 (DYNAMICS)  max=  1.66246107429539E-05
DEBUG_STATS_RL:               GvNm1 (DYNAMICS) mean=  7.62586671665724E-07
DEBUG_STATS_RL:               GvNm1 (DYNAMICS) S.D.=  2.65518897634803E-06
DEBUG_STATS_RL:               GtNm1 (DYNAMICS)  min= -4.12618679009219E-06
DEBUG_STATS_RL:               GtNm1 (DYNAMICS)  max=  2.48488027084349E-06
DEBUG_STATS_RL:               GtNm1 (DYNAMICS) mean=  4.81921248780471E-09
DEBUG_STATS_RL:               GtNm1 (DYNAMICS) S.D.=  2.14463711809627E-07
DEBUG_STATS_RL:               GsNm1 (DYNAMICS)  min= -8.66990144997799E-07
DEBUG_STATS_RL:               GsNm1 (DYNAMICS)  max=  6.37197110169833E-07
DEBUG_STATS_RL:               GsNm1 (DYNAMICS) mean= -6.30520380909716E-10
DEBUG_STATS_RL:               GsNm1 (DYNAMICS) S.D.=  1.96756401357448E-08
DEBUG_STATS_RL:    cg2d_b (SOLVE_FOR_PRESSURE)  min= -2.10146467795019E+04
DEBUG_STATS_RL:    cg2d_b (SOLVE_FOR_PRESSURE)  max=  1.83842636107105E+04
DEBUG_STATS_RL:    cg2d_b (SOLVE_FOR_PRESSURE) mean=  2.20186102711614E+00
DEBUG_STATS_RL:    cg2d_b (SOLVE_FOR_PRESSURE) S.D.=  3.82599711241355E+03
 cg2d: Sum(rhs),rhsMax =   2.42559788477897E-01  1.38029826563329E+00
(PID.TID 0000.0001)  cg2d: iter=     1 ; resid.=  1.63421695443234E-01
(PID.TID 0000.0001)  cg2d: iter=     2 ; resid.=  1.43958530733867E-01
(PID.TID 0000.0001)  cg2d: iter=     3 ; resid.=  1.33507728877939E-01
(PID.TID 0000.0001)  cg2d: iter=     4 ; resid.=  1.14830536947524E-01
(PID.TID 0000.0001)  cg2d: iter=     5 ; resid.=  1.02263049655620E-01
(PID.TID 0000.0001)  cg2d: iter=     6 ; resid.=  8.86878022491758E-02
(PID.TID 0000.0001)  cg2d: iter=     7 ; resid.=  7.79859583552408E-02
(PID.TID 0000.0001)  cg2d: iter=     8 ; resid.=  5.66516418790710E-02
(PID.TID 0000.0001)  cg2d: iter=     9 ; resid.=  4.26670385347413E-02
(PID.TID 0000.0001)  cg2d: iter=    10 ; resid.=  3.50647775435129E-02
(PID.TID 0000.0001)  cg2d: iter=    11 ; resid.=  3.10518108507375E-02
(PID.TID 0000.0001)  cg2d: iter=    12 ; resid.=  2.58800032775041E-02
(PID.TID 0000.0001)  cg2d: iter=    13 ; resid.=  2.13207844511214E-02
(PID.TID 0000.0001)  cg2d: iter=    14 ; resid.=  1.67837296051485E-02
(PID.TID 0000.0001)  cg2d: iter=    15 ; resid.=  1.34342545632192E-02
(PID.TID 0000.0001)  cg2d: iter=    16 ; resid.=  1.15591936382139E-02
(PID.TID 0000.0001)  cg2d: iter=    17 ; resid.=  1.00122763839335E-02
(PID.TID 0000.0001)  cg2d: iter=    18 ; resid.=  8.72579303503255E-03
(PID.TID 0000.0001)  cg2d: iter=    19 ; resid.=  6.86187025803587E-03
(PID.TID 0000.0001)  cg2d: iter=    20 ; resid.=  5.33317530604493E-03
(PID.TID 0000.0001)  cg2d: iter=    21 ; resid.=  4.44118781544187E-03
(PID.TID 0000.0001)  cg2d: iter=    22 ; resid.=  3.86048976276499E-03
(PID.TID 0000.0001)  cg2d: iter=    23 ; resid.=  3.44424460779218E-03
(PID.TID 0000.0001)  cg2d: iter=    24 ; resid.=  2.97993138527281E-03
(PID.TID 0000.0001)  cg2d: iter=    25 ; resid.=  2.31662750782950E-03
(PID.TID 0000.0001)  cg2d: iter=    26 ; resid.=  1.90565050706180E-03
(PID.TID 0000.0001)  cg2d: iter=    27 ; resid.=  1.61935878477429E-03
(PID.TID 0000.0001)  cg2d: iter=    28 ; resid.=  1.36300856915107E-03
(PID.TID 0000.0001)  cg2d: iter=    29 ; resid.=  1.11870156916983E-03
(PID.TID 0000.0001)  cg2d: iter=    30 ; resid.=  8.87113173292882E-04
(PID.TID 0000.0001)  cg2d: iter=    31 ; resid.=  7.43285800609658E-04
(PID.TID 0000.0001)  cg2d: iter=    32 ; resid.=  5.97133747618863E-04
(PID.TID 0000.0001)  cg2d: iter=    33 ; resid.=  4.78053601693273E-04
(PID.TID 0000.0001)  cg2d: iter=    34 ; resid.=  3.80617609139978E-04
(PID.TID 0000.0001)  cg2d: iter=    35 ; resid.=  3.05347347741261E-04
(PID.TID 0000.0001)  cg2d: iter=    36 ; resid.=  2.45342254729063E-04
(PID.TID 0000.0001)  cg2d: iter=    37 ; resid.=  2.15523885303882E-04
(PID.TID 0000.0001)  cg2d: iter=    38 ; resid.=  1.90801776063135E-04
(PID.TID 0000.0001)  cg2d: iter=    39 ; resid.=  1.63417484501569E-04
(PID.TID 0000.0001)  cg2d: iter=    40 ; resid.=  1.33409482852328E-04
(PID.TID 0000.0001)  cg2d: iter=    41 ; resid.=  1.14762590878257E-04
(PID.TID 0000.0001)  cg2d: iter=    42 ; resid.=  1.07888816503050E-04
(PID.TID 0000.0001)  cg2d: iter=    43 ; resid.=  9.36165544091527E-05
(PID.TID 0000.0001)  cg2d: iter=    44 ; resid.=  7.67359151027811E-05
(PID.TID 0000.0001)  cg2d: iter=    45 ; resid.=  6.33957982473598E-05
(PID.TID 0000.0001)  cg2d: iter=    46 ; resid.=  5.15289410153502E-05
(PID.TID 0000.0001)  cg2d: iter=    47 ; resid.=  4.30652161017981E-05
(PID.TID 0000.0001)  cg2d: iter=    48 ; resid.=  3.47036742273053E-05
(PID.TID 0000.0001)  cg2d: iter=    49 ; resid.=  2.66985939932540E-05
(PID.TID 0000.0001)  cg2d: iter=    50 ; resid.=  2.09019597713298E-05
(PID.TID 0000.0001)  cg2d: iter=    51 ; resid.=  1.85037866818516E-05
(PID.TID 0000.0001)  cg2d: iter=    52 ; resid.=  1.59105971143590E-05
(PID.TID 0000.0001)  cg2d: iter=    53 ; resid.=  1.39828202575472E-05
(PID.TID 0000.0001)  cg2d: iter=    54 ; resid.=  1.22552596078149E-05
(PID.TID 0000.0001)  cg2d: iter=    55 ; resid.=  1.01958828960161E-05
(PID.TID 0000.0001)  cg2d: iter=    56 ; resid.=  9.31950742728611E-06
(PID.TID 0000.0001)  cg2d: iter=    57 ; resid.=  7.75558202905198E-06
(PID.TID 0000.0001)  cg2d: iter=    58 ; resid.=  6.29998349019520E-06
(PID.TID 0000.0001)  cg2d: iter=    59 ; resid.=  4.99067599100707E-06
(PID.TID 0000.0001)  cg2d: iter=    60 ; resid.=  4.06648889010340E-06
(PID.TID 0000.0001)  cg2d: iter=    61 ; resid.=  3.42865602724522E-06
(PID.TID 0000.0001)  cg2d: iter=    62 ; resid.=  2.94301116447301E-06
(PID.TID 0000.0001)  cg2d: iter=    63 ; resid.=  2.24535647946743E-06
(PID.TID 0000.0001)  cg2d: iter=    64 ; resid.=  1.84333913918993E-06
(PID.TID 0000.0001)  cg2d: iter=    65 ; resid.=  1.42005368939657E-06
(PID.TID 0000.0001)  cg2d: iter=    66 ; resid.=  1.10548734270902E-06
(PID.TID 0000.0001)  cg2d: iter=    67 ; resid.=  9.54078683680917E-07
(PID.TID 0000.0001)  cg2d: iter=    68 ; resid.=  8.42932667509024E-07
(PID.TID 0000.0001)  cg2d: iter=    69 ; resid.=  6.85880006817391E-07
(PID.TID 0000.0001)  cg2d: iter=    70 ; resid.=  5.47006489829525E-07
(PID.TID 0000.0001)  cg2d: iter=    71 ; resid.=  4.50709379717661E-07
(PID.TID 0000.0001)  cg2d: iter=    72 ; resid.=  3.91549933208720E-07
(PID.TID 0000.0001)  cg2d: iter=    73 ; resid.=  3.56717224155634E-07
(PID.TID 0000.0001)  cg2d: iter=    74 ; resid.=  3.24273817377345E-07
(PID.TID 0000.0001)  cg2d: iter=    75 ; resid.=  2.69492198864080E-07
(PID.TID 0000.0001)  cg2d: iter=    76 ; resid.=  2.45105306307989E-07
(PID.TID 0000.0001)  cg2d: iter=    77 ; resid.=  2.03650568443233E-07
(PID.TID 0000.0001)  cg2d: iter=    78 ; resid.=  1.55760129444916E-07
(PID.TID 0000.0001)  cg2d: iter=    79 ; resid.=  1.28069347774818E-07
(PID.TID 0000.0001)  cg2d: iter=    80 ; resid.=  9.53721396458866E-08
(PID.TID 0000.0001)  cg2d: iter=    81 ; resid.=  7.47517938332953E-08
(PID.TID 0000.0001)  cg2d: iter=    82 ; resid.=  5.72539942489920E-08
(PID.TID 0000.0001)  cg2d: iter=    83 ; resid.=  4.31788633528082E-08
(PID.TID 0000.0001)  cg2d: iter=    84 ; resid.=  3.23206732414340E-08
(PID.TID 0000.0001)  cg2d: iter=    85 ; resid.=  2.42576807211977E-08
(PID.TID 0000.0001)  cg2d: iter=    86 ; resid.=  1.75076323153493E-08
(PID.TID 0000.0001)  cg2d: iter=    87 ; resid.=  1.22266374354122E-08
(PID.TID 0000.0001)  cg2d: iter=    88 ; resid.=  9.14555137433716E-09
(PID.TID 0000.0001)  cg2d: iter=    89 ; resid.=  7.54250044477369E-09
(PID.TID 0000.0001)  cg2d: iter=    90 ; resid.=  6.44285825549521E-09
(PID.TID 0000.0001)  cg2d: iter=    91 ; resid.=  5.44753232327434E-09
(PID.TID 0000.0001)  cg2d: iter=    92 ; resid.=  4.27888688774653E-09
(PID.TID 0000.0001)  cg2d: iter=    93 ; resid.=  3.63511817314347E-09
(PID.TID 0000.0001)  cg2d: iter=    94 ; resid.=  3.01939460223906E-09
(PID.TID 0000.0001)  cg2d: iter=    95 ; resid.=  2.47787480392985E-09
(PID.TID 0000.0001)  cg2d: iter=    96 ; resid.=  1.87747165110996E-09
(PID.TID 0000.0001)  cg2d: iter=    97 ; resid.=  1.49963077708966E-09
(PID.TID 0000.0001)  cg2d: iter=    98 ; resid.=  1.22092718935745E-09
(PID.TID 0000.0001)  cg2d: iter=    99 ; resid.=  1.04589533061632E-09
(PID.TID 0000.0001)  cg2d: iter=   100 ; resid.=  9.14812434214920E-10
(PID.TID 0000.0001)  cg2d: iter=   101 ; resid.=  7.35513736713339E-10
(PID.TID 0000.0001)  cg2d: iter=   102 ; resid.=  5.65827437781532E-10
(PID.TID 0000.0001)  cg2d: iter=   103 ; resid.=  4.02756713765021E-10
(PID.TID 0000.0001)  cg2d: iter=   104 ; resid.=  3.29417703970511E-10
(PID.TID 0000.0001)  cg2d: iter=   105 ; resid.=  2.69099489029153E-10
(PID.TID 0000.0001)  cg2d: iter=   106 ; resid.=  2.28673120118777E-10
(PID.TID 0000.0001)  cg2d: iter=   107 ; resid.=  1.92697918535911E-10
(PID.TID 0000.0001)  cg2d: iter=   108 ; resid.=  1.46590315549949E-10
(PID.TID 0000.0001)  cg2d: iter=   109 ; resid.=  1.11286243972746E-10
(PID.TID 0000.0001)  cg2d: iter=   110 ; resid.=  8.24942486676254E-11
(PID.TID 0000.0001)  cg2d: iter=   111 ; resid.=  6.19228797142020E-11
(PID.TID 0000.0001)  cg2d: iter=   112 ; resid.=  4.79235816606371E-11
(PID.TID 0000.0001)  cg2d: iter=   113 ; resid.=  3.35300463262307E-11
(PID.TID 0000.0001)  cg2d: iter=   114 ; resid.=  2.62965091878168E-11
(PID.TID 0000.0001)  cg2d: iter=   115 ; resid.=  2.05769352652629E-11
(PID.TID 0000.0001)  cg2d: iter=   116 ; resid.=  1.56348109857777E-11
(PID.TID 0000.0001)  cg2d: iter=   117 ; resid.=  1.21320389504759E-11
(PID.TID 0000.0001)  cg2d: iter=   118 ; resid.=  9.84598949655379E-12
(PID.TID 0000.0001)  cg2d: iter=   119 ; resid.=  7.75895556597056E-12
(PID.TID 0000.0001)  cg2d: iter=   120 ; resid.=  6.08865077819138E-12
(PID.TID 0000.0001)  cg2d: iter=   121 ; resid.=  4.59776171802548E-12
(PID.TID 0000.0001)  cg2d: iter=   122 ; resid.=  3.21771950759288E-12
(PID.TID 0000.0001)  cg2d: iter=   123 ; resid.=  2.37989036774983E-12
(PID.TID 0000.0001)  cg2d: iter=   124 ; resid.=  1.84634163999350E-12
(PID.TID 0000.0001)  cg2d: iter=   125 ; resid.=  1.44983869326970E-12
(PID.TID 0000.0001)  cg2d: iter=   126 ; resid.=  1.02309703639520E-12
(PID.TID 0000.0001)  cg2d: iter=   127 ; resid.=  6.19447471632994E-13
(PID.TID 0000.0001)  cg2d: iter=   128 ; resid.=  4.14483671529559E-13
(PID.TID 0000.0001)  cg2d: iter=   129 ; resid.=  2.90499190296437E-13
(PID.TID 0000.0001)  cg2d: iter=   130 ; resid.=  2.12159903890044E-13
(PID.TID 0000.0001)  cg2d: iter=   131 ; resid.=  1.64168181199377E-13
(PID.TID 0000.0001)  cg2d: iter=   132 ; resid.=  1.28162457317024E-13
(PID.TID 0000.0001)  cg2d: iter=   133 ; resid.=  9.80301260103349E-14
DEBUG_STATS_RL:    cg2d_x (SOLVE_FOR_PRESSURE)  min= -1.66328628149288E+01
DEBUG_STATS_RL:    cg2d_x (SOLVE_FOR_PRESSURE)  max=  8.36632586939716E+00
DEBUG_STATS_RL:    cg2d_x (SOLVE_FOR_PRESSURE) mean= -1.55819642049775E+00
DEBUG_STATS_RL:    cg2d_x (SOLVE_FOR_PRESSURE) S.D.=  6.23003946957715E+00
(PID.TID 0000.0001)      cg2d_init_res =   4.48961219072184E-01
(PID.TID 0000.0001)      cg2d_iters(min,last) =      -1     133
(PID.TID 0000.0001)      cg2d_last_res =   9.80301260103349E-14
(PID.TID 0000.0001) // =======================================================
(PID.TID 0000.0001) // Begin MONITOR dynamic field statistics
(PID.TID 0000.0001) // =======================================================
(PID.TID 0000.0001) %MON time_tsnumber                =                    31
(PID.TID 0000.0001) %MON time_secondsf                =   2.6784000000000E+06
(PID.TID 0000.0001) %MON dynstat_eta_max              =   8.5283648006087E-01
(PID.TID 0000.0001) %MON dynstat_eta_min              =  -1.6955007966288E+00
(PID.TID 0000.0001) %MON dynstat_eta_mean             =  -2.2973689600417E-03
(PID.TID 0000.0001) %MON dynstat_eta_sd               =   5.4871256058715E-01
(PID.TID 0000.0001) %MON dynstat_eta_del2             =   2.1408587497051E-03
(PID.TID 0000.0001) %MON dynstat_uvel_max             =   1.0788099507462E-01
(PID.TID 0000.0001) %MON dynstat_uvel_min             =  -1.7401742968663E-01
(PID.TID 0000.0001) %MON dynstat_uvel_mean            =   1.7344796924456E-03
(PID.TID 0000.0001) %MON dynstat_uvel_sd              =   1.3075692854130E-02
(PID.TID 0000.0001) %MON dynstat_uvel_del2            =   7.7242749466776E-05
(PID.TID 0000.0001) %MON dynstat_vvel_max             =   1.1899560368113E-01
(PID.TID 0000.0001) %MON dynstat_vvel_min             =  -1.2228673974230E-01
(PID.TID 0000.0001) %MON dynstat_vvel_mean            =  -5.4068349819576E-05
(PID.TID 0000.0001) %MON dynstat_vvel_sd              =   8.8138447781970E-03
(PID.TID 0000.0001) %MON dynstat_vvel_del2            =   7.5809520077253E-05
(PID.TID 0000.0001) %MON dynstat_wvel_max             =   1.0668103718060E-04
(PID.TID 0000.0001) %MON dynstat_wvel_min             =  -1.0844757819896E-04
(PID.TID 0000.0001) %MON dynstat_wvel_mean            =   2.8686062603967E-22
(PID.TID 0000.0001) %MON dynstat_wvel_sd              =   1.4080767579317E-05
(PID.TID 0000.0001) %MON dynstat_wvel_del2            =   1.6808922314468E-07
(PID.TID 0000.0001) %MON dynstat_theta_max            =   2.9996991579906E+01
(PID.TID 0000.0001) %MON dynstat_theta_min            =  -2.0070734065674E+00
(PID.TID 0000.0001) %MON dynstat_theta_mean           =   3.6311999891887E+00
(PID.TID 0000.0001) %MON dynstat_theta_sd             =   4.4175454530580E+00
(PID.TID 0000.0001) %MON dynstat_theta_del2           =   4.8358635689602E-03
(PID.TID 0000.0001) %MON dynstat_salt_max             =   3.7462238661101E+01
(PID.TID 0000.0001) %MON dynstat_salt_min             =   2.9831707364459E+01
(PID.TID 0000.0001) %MON dynstat_salt_mean            =   3.4727970742596E+01
(PID.TID 0000.0001) %MON dynstat_salt_sd              =   2.9623143963385E-01
(PID.TID 0000.0001) %MON dynstat_salt_del2            =   9.9637327776249E-04
(PID.TID 0000.0001) %MON dynstat_sst_max              =   2.9996991579906E+01
(PID.TID 0000.0001) %MON dynstat_sst_min              =  -2.0070734065674E+00
(PID.TID 0000.0001) %MON dynstat_sst_mean             =   1.8753504078660E+01
(PID.TID 0000.0001) %MON dynstat_sst_sd               =   9.0499277906492E+00
(PID.TID 0000.0001) %MON dynstat_sst_del2             =   2.6688057658484E-02
(PID.TID 0000.0001) %MON dynstat_sss_max              =   3.7442275010744E+01
(PID.TID 0000.0001) %MON dynstat_sss_min              =   2.9831707364459E+01
(PID.TID 0000.0001) %MON dynstat_sss_mean             =   3.4855996243587E+01
(PID.TID 0000.0001) %MON dynstat_sss_sd               =   9.7536090036029E-01
(PID.TID 0000.0001) %MON dynstat_sss_del2             =   7.8698328385822E-03
(PID.TID 0000.0001) %MON forcing_qnet_max             =   3.9182731628418E+02
(PID.TID 0000.0001) %MON forcing_qnet_min             =  -1.7642675781250E+02
(PID.TID 0000.0001) %MON forcing_qnet_mean            =  -1.5238888489994E+01
(PID.TID 0000.0001) %MON forcing_qnet_sd              =   9.4114712979606E+01
(PID.TID 0000.0001) %MON forcing_qnet_del2            =   9.7322307830092E-01
(PID.TID 0000.0001) %MON forcing_qsw_max              =   0.0000000000000E+00
(PID.TID 0000.0001) %MON forcing_qsw_min              =   0.0000000000000E+00
(PID.TID 0000.0001) %MON forcing_qsw_mean             =   0.0000000000000E+00
(PID.TID 0000.0001) %MON forcing_qsw_sd               =   0.0000000000000E+00
(PID.TID 0000.0001) %MON forcing_qsw_del2             =   0.0000000000000E+00
(PID.TID 0000.0001) %MON forcing_empmr_max            =   7.7462892988933E-05
(PID.TID 0000.0001) %MON forcing_empmr_min            =  -7.7350620131256E-05
(PID.TID 0000.0001) %MON forcing_empmr_mean           =   9.3317302101000E-07
(PID.TID 0000.0001) %MON forcing_empmr_sd             =   2.8186220289087E-05
(PID.TID 0000.0001) %MON forcing_empmr_del2           =   3.5503679705846E-07
(PID.TID 0000.0001) %MON forcing_fu_max               =   2.8382815420628E-01
(PID.TID 0000.0001) %MON forcing_fu_min               =  -1.9083349406719E-01
(PID.TID 0000.0001) %MON forcing_fu_mean              =   1.6816238384601E-02
(PID.TID 0000.0001) %MON forcing_fu_sd                =   9.0089488020582E-02
(PID.TID 0000.0001) %MON forcing_fu_del2              =   6.6869774104657E-04
(PID.TID 0000.0001) %MON forcing_fv_max               =   1.8921542167664E-01
(PID.TID 0000.0001) %MON forcing_fv_min               =  -1.6326740384102E-01
(PID.TID 0000.0001) %MON forcing_fv_mean              =  -6.2378113402327E-03
(PID.TID 0000.0001) %MON forcing_fv_sd                =   4.4915007548310E-02
(PID.TID 0000.0001) %MON forcing_fv_del2              =   4.6591560448849E-04
(PID.TID 0000.0001) %MON trAdv_CFL_u_max              =   3.4876714184444E-02
(PID.TID 0000.0001) %MON trAdv_CFL_v_max              =   2.4999808112410E-02
(PID.TID 0000.0001) %MON trAdv_CFL_w_max              =   4.7322213991977E-02
(PID.TID 0000.0001) %MON advcfl_uvel_max              =   3.5658511434416E-02
(PID.TID 0000.0001) %MON advcfl_vvel_max              =   2.3758352288416E-02
(PID.TID 0000.0001) %MON advcfl_wvel_max              =   4.3897985153553E-02
(PID.TID 0000.0001) %MON advcfl_W_hf_max              =   5.1736911073830E-02
(PID.TID 0000.0001) %MON pe_b_mean                    =   3.8528190856896E-04
(PID.TID 0000.0001) %MON ke_max                       =   1.4959280618602E-02
(PID.TID 0000.0001) %MON ke_mean                      =   1.1391973231383E-04
(PID.TID 0000.0001) %MON ke_vol                       =   1.3226782436723E+18
(PID.TID 0000.0001) %MON vort_r_min                   =  -3.1030322116611E-07
(PID.TID 0000.0001) %MON vort_r_max                   =   4.1853264471820E-07
(PID.TID 0000.0001) %MON vort_a_mean                  =  -2.5274807469858E-05
(PID.TID 0000.0001) %MON vort_a_sd                    =   7.3604552765873E-05
(PID.TID 0000.0001) %MON vort_p_mean                  =  -3.1845655890703E-05
(PID.TID 0000.0001) %MON vort_p_sd                    =   1.3162652180735E-04
(PID.TID 0000.0001) %MON surfExpan_theta_mean         =   2.6840781362121E-07
(PID.TID 0000.0001) %MON surfExpan_salt_mean          =  -9.5626905745701E-08
(PID.TID 0000.0001) // =======================================================
(PID.TID 0000.0001) // End MONITOR dynamic field statistics
(PID.TID 0000.0001) // =======================================================
 EXTERNAL_FIELDS_LOAD,        31 : iP,iLd,i0,i1=    1    2    1    2 ; Wght=  0.4666666667  0.5333333333
 EXTERNAL_FIELDS_LOAD: (fu0,1),fu,fv= -3.5633E-02 -1.4435E-02 -2.4327E-02 -3.6125E-02
 EXTERNAL_FIELDS_LOAD: SST,SSS,Q,E-P=  1.6361E-01  3.4558E+01  2.5228E+02  9.8983E-06
DEBUG_STATS_RL:          Uvel (THERMODYNAMICS)  min= -1.74017429686635E-01
DEBUG_STATS_RL:          Uvel (THERMODYNAMICS)  max=  1.07880995074617E-01
DEBUG_STATS_RL:          Uvel (THERMODYNAMICS) mean=  2.64341611081653E-03
DEBUG_STATS_RL:          Uvel (THERMODYNAMICS) S.D.=  1.94056749402829E-02
DEBUG_STATS_RL:          Vvel (THERMODYNAMICS)  min= -1.22286739742302E-01
DEBUG_STATS_RL:          Vvel (THERMODYNAMICS)  max=  1.18995603681130E-01
DEBUG_STATS_RL:          Vvel (THERMODYNAMICS) mean=  2.50013074505696E-04
DEBUG_STATS_RL:          Vvel (THERMODYNAMICS) S.D.=  1.33408392781524E-02
DEBUG_STATS_RL:          Wvel (THERMODYNAMICS)  min= -1.08447578198960E-04
DEBUG_STATS_RL:          Wvel (THERMODYNAMICS)  max=  1.06681037180604E-04
DEBUG_STATS_RL:          Wvel (THERMODYNAMICS) mean= -1.07999708953330E-07
DEBUG_STATS_RL:          Wvel (THERMODYNAMICS) S.D.=  1.27684594918498E-05
DEBUG_STATS_RL:         Theta (THERMODYNAMICS)  min= -2.00637569904747E+00
DEBUG_STATS_RL:         Theta (THERMODYNAMICS)  max=  3.00158838458356E+01
DEBUG_STATS_RL:         Theta (THERMODYNAMICS) mean=  3.21959123733418E+00
DEBUG_STATS_RL:         Theta (THERMODYNAMICS) S.D.=  5.85920290098808E+00
DEBUG_STATS_RL:          Salt (THERMODYNAMICS)  min=  9.99999999999998E-03
DEBUG_STATS_RL:          Salt (THERMODYNAMICS)  max=  3.74629889814012E+01
DEBUG_STATS_RL:          Salt (THERMODYNAMICS) mean=  1.88548880894419E+01
DEBUG_STATS_RL:          Salt (THERMODYNAMICS) S.D.=  1.73003984622346E+01
DEBUG_STATS_RL:         GtNm1 (THERMODYNAMICS)  min= -3.47701086277635E-06
DEBUG_STATS_RL:         GtNm1 (THERMODYNAMICS)  max=  2.42122421426018E-06
DEBUG_STATS_RL:         GtNm1 (THERMODYNAMICS) mean=  6.29684241069009E-09
DEBUG_STATS_RL:         GtNm1 (THERMODYNAMICS) S.D.=  2.11572021055320E-07
DEBUG_STATS_RL:         GsNm1 (THERMODYNAMICS)  min= -6.81862945397184E-07
DEBUG_STATS_RL:         GsNm1 (THERMODYNAMICS)  max=  5.04689664809853E-07
DEBUG_STATS_RL:         GsNm1 (THERMODYNAMICS) mean= -5.77016371228351E-10
DEBUG_STATS_RL:         GsNm1 (THERMODYNAMICS) S.D.=  1.89467196446724E-08
DEBUG_STATS_RL:                EtaN (DYNAMICS)  min= -1.69550079662882E+00
DEBUG_STATS_RL:                EtaN (DYNAMICS)  max=  8.52836480060870E-01
DEBUG_STATS_RL:                EtaN (DYNAMICS) mean= -1.58837555606294E-01
DEBUG_STATS_RL:                EtaN (DYNAMICS) S.D.=  6.35070282321836E-01
DEBUG_STATS_RL:                Uvel (DYNAMICS)  min= -1.74017429686635E-01
DEBUG_STATS_RL:                Uvel (DYNAMICS)  max=  1.07880995074617E-01
DEBUG_STATS_RL:                Uvel (DYNAMICS) mean=  2.64341611081653E-03
DEBUG_STATS_RL:                Uvel (DYNAMICS) S.D.=  1.94056749402829E-02
DEBUG_STATS_RL:                Vvel (DYNAMICS)  min= -1.22286739742302E-01
DEBUG_STATS_RL:                Vvel (DYNAMICS)  max=  1.18995603681130E-01
DEBUG_STATS_RL:                Vvel (DYNAMICS) mean=  2.50013074505696E-04
DEBUG_STATS_RL:                Vvel (DYNAMICS) S.D.=  1.33408392781524E-02
DEBUG_STATS_RL:                Wvel (DYNAMICS)  min= -1.08447578198960E-04
DEBUG_STATS_RL:                Wvel (DYNAMICS)  max=  1.06681037180604E-04
DEBUG_STATS_RL:                Wvel (DYNAMICS) mean= -1.07999708953330E-07
DEBUG_STATS_RL:                Wvel (DYNAMICS) S.D.=  1.27684594918498E-05
DEBUG_STATS_RL:               Theta (DYNAMICS)  min= -2.00637569904747E+00
DEBUG_STATS_RL:               Theta (DYNAMICS)  max=  3.00158838458356E+01
DEBUG_STATS_RL:               Theta (DYNAMICS) mean=  3.21959123733418E+00
DEBUG_STATS_RL:               Theta (DYNAMICS) S.D.=  5.85920290098808E+00
DEBUG_STATS_RL:                Salt (DYNAMICS)  min=  9.99999999999998E-03
DEBUG_STATS_RL:                Salt (DYNAMICS)  max=  3.74629889814012E+01
DEBUG_STATS_RL:                Salt (DYNAMICS) mean=  1.88548880894419E+01
DEBUG_STATS_RL:                Salt (DYNAMICS) S.D.=  1.73003984622346E+01
DEBUG_STATS_RL:                  Gu (DYNAMICS)  min= -1.75341428511911E-01
DEBUG_STATS_RL:                  Gu (DYNAMICS)  max=  9.64452035866679E-02
DEBUG_STATS_RL:                  Gu (DYNAMICS) mean=  2.68626217070123E-03
DEBUG_STATS_RL:                  Gu (DYNAMICS) S.D.=  2.01555269270027E-02
DEBUG_STATS_RL:                  Gv (DYNAMICS)  min= -1.24411343103771E-01
DEBUG_STATS_RL:                  Gv (DYNAMICS)  max=  1.10966009541235E-01
DEBUG_STATS_RL:                  Gv (DYNAMICS) mean=  2.38980475920766E-03
DEBUG_STATS_RL:                  Gv (DYNAMICS) S.D.=  1.39799773611702E-02
DEBUG_STATS_RL:               GuNm1 (DYNAMICS)  min= -8.00083993709957E-06
DEBUG_STATS_RL:               GuNm1 (DYNAMICS)  max=  7.66982986515713E-06
DEBUG_STATS_RL:               GuNm1 (DYNAMICS) mean= -1.77835719923571E-08
DEBUG_STATS_RL:               GuNm1 (DYNAMICS) S.D.=  1.19755967472256E-06
DEBUG_STATS_RL:               GvNm1 (DYNAMICS)  min= -1.08601972371506E-05
DEBUG_STATS_RL:               GvNm1 (DYNAMICS)  max=  1.65796662799525E-05
DEBUG_STATS_RL:               GvNm1 (DYNAMICS) mean=  7.60780146352327E-07
DEBUG_STATS_RL:               GvNm1 (DYNAMICS) S.D.=  2.65310311472486E-06
DEBUG_STATS_RL:               GtNm1 (DYNAMICS)  min= -3.47701086277635E-06
DEBUG_STATS_RL:               GtNm1 (DYNAMICS)  max=  2.42122421426018E-06
DEBUG_STATS_RL:               GtNm1 (DYNAMICS) mean=  6.29684241069009E-09
DEBUG_STATS_RL:               GtNm1 (DYNAMICS) S.D.=  2.11572021055320E-07
DEBUG_STATS_RL:               GsNm1 (DYNAMICS)  min= -6.81862945397184E-07
DEBUG_STATS_RL:               GsNm1 (DYNAMICS)  max=  5.04689664809853E-07
DEBUG_STATS_RL:               GsNm1 (DYNAMICS) mean= -5.77016371228351E-10
DEBUG_STATS_RL:               GsNm1 (DYNAMICS) S.D.=  1.89467196446724E-08
DEBUG_STATS_RL:    cg2d_b (SOLVE_FOR_PRESSURE)  min= -2.05032086405344E+04
DEBUG_STATS_RL:    cg2d_b (SOLVE_FOR_PRESSURE)  max=  1.81475543573347E+04
DEBUG_STATS_RL:    cg2d_b (SOLVE_FOR_PRESSURE) mean=  2.27657678242955E+00
DEBUG_STATS_RL:    cg2d_b (SOLVE_FOR_PRESSURE) S.D.=  3.81855347951924E+03
 cg2d: Sum(rhs),rhsMax =   2.57046364972492E-01  1.34670563932829E+00
(PID.TID 0000.0001)  cg2d: iter=     1 ; resid.=  1.68664195912852E-01
(PID.TID 0000.0001)  cg2d: iter=     2 ; resid.=  1.52456441636945E-01
(PID.TID 0000.0001)  cg2d: iter=     3 ; resid.=  1.43152055884407E-01
(PID.TID 0000.0001)  cg2d: iter=     4 ; resid.=  1.25719734002218E-01
(PID.TID 0000.0001)  cg2d: iter=     5 ; resid.=  1.16561983661068E-01
(PID.TID 0000.0001)  cg2d: iter=     6 ; resid.=  1.00297744989232E-01
(PID.TID 0000.0001)  cg2d: iter=     7 ; resid.=  8.73152563064504E-02
(PID.TID 0000.0001)  cg2d: iter=     8 ; resid.=  6.26675524441997E-02
(PID.TID 0000.0001)  cg2d: iter=     9 ; resid.=  4.62300976402368E-02
(PID.TID 0000.0001)  cg2d: iter=    10 ; resid.=  3.73542761402948E-02
(PID.TID 0000.0001)  cg2d: iter=    11 ; resid.=  3.31452814312586E-02
(PID.TID 0000.0001)  cg2d: iter=    12 ; resid.=  2.78887465208406E-02
(PID.TID 0000.0001)  cg2d: iter=    13 ; resid.=  2.30472472311553E-02
(PID.TID 0000.0001)  cg2d: iter=    14 ; resid.=  1.87324876990233E-02
(PID.TID 0000.0001)  cg2d: iter=    15 ; resid.=  1.50262768577020E-02
(PID.TID 0000.0001)  cg2d: iter=    16 ; resid.=  1.29482683197702E-02
(PID.TID 0000.0001)  cg2d: iter=    17 ; resid.=  1.12345503240587E-02
(PID.TID 0000.0001)  cg2d: iter=    18 ; resid.=  9.81557159208899E-03
(PID.TID 0000.0001)  cg2d: iter=    19 ; resid.=  7.58973075575975E-03
(PID.TID 0000.0001)  cg2d: iter=    20 ; resid.=  5.83491487786023E-03
(PID.TID 0000.0001)  cg2d: iter=    21 ; resid.=  4.89275414264588E-03
(PID.TID 0000.0001)  cg2d: iter=    22 ; resid.=  4.23850257296679E-03
(PID.TID 0000.0001)  cg2d: iter=    23 ; resid.=  3.81010111351314E-03
(PID.TID 0000.0001)  cg2d: iter=    24 ; resid.=  3.40359727876943E-03
(PID.TID 0000.0001)  cg2d: iter=    25 ; resid.=  2.67976024987308E-03
(PID.TID 0000.0001)  cg2d: iter=    26 ; resid.=  2.19391370281952E-03
(PID.TID 0000.0001)  cg2d: iter=    27 ; resid.=  1.82145747076989E-03
(PID.TID 0000.0001)  cg2d: iter=    28 ; resid.=  1.50494858399687E-03
(PID.TID 0000.0001)  cg2d: iter=    29 ; resid.=  1.20049118754702E-03
(PID.TID 0000.0001)  cg2d: iter=    30 ; resid.=  9.50193598589299E-04
(PID.TID 0000.0001)  cg2d: iter=    31 ; resid.=  7.93435724058652E-04
(PID.TID 0000.0001)  cg2d: iter=    32 ; resid.=  6.39900918878507E-04
(PID.TID 0000.0001)  cg2d: iter=    33 ; resid.=  5.23957978985071E-04
(PID.TID 0000.0001)  cg2d: iter=    34 ; resid.=  4.24182887515893E-04
(PID.TID 0000.0001)  cg2d: iter=    35 ; resid.=  3.50067040237837E-04
(PID.TID 0000.0001)  cg2d: iter=    36 ; resid.=  2.86955447475668E-04
(PID.TID 0000.0001)  cg2d: iter=    37 ; resid.=  2.58030600609134E-04
(PID.TID 0000.0001)  cg2d: iter=    38 ; resid.=  2.33125855575447E-04
(PID.TID 0000.0001)  cg2d: iter=    39 ; resid.=  2.02977524425658E-04
(PID.TID 0000.0001)  cg2d: iter=    40 ; resid.=  1.66326572365410E-04
(PID.TID 0000.0001)  cg2d: iter=    41 ; resid.=  1.42176100797541E-04
(PID.TID 0000.0001)  cg2d: iter=    42 ; resid.=  1.29896591829469E-04
(PID.TID 0000.0001)  cg2d: iter=    43 ; resid.=  1.10827791909602E-04
(PID.TID 0000.0001)  cg2d: iter=    44 ; resid.=  8.95073167956741E-05
(PID.TID 0000.0001)  cg2d: iter=    45 ; resid.=  7.11412890532698E-05
(PID.TID 0000.0001)  cg2d: iter=    46 ; resid.=  5.73259681020820E-05
(PID.TID 0000.0001)  cg2d: iter=    47 ; resid.=  4.83101522469927E-05
(PID.TID 0000.0001)  cg2d: iter=    48 ; resid.=  3.84981312594227E-05
(PID.TID 0000.0001)  cg2d: iter=    49 ; resid.=  2.97694524341542E-05
(PID.TID 0000.0001)  cg2d: iter=    50 ; resid.=  2.41982196986752E-05
(PID.TID 0000.0001)  cg2d: iter=    51 ; resid.=  2.21977954391436E-05
(PID.TID 0000.0001)  cg2d: iter=    52 ; resid.=  1.92223021721803E-05
(PID.TID 0000.0001)  cg2d: iter=    53 ; resid.=  1.70086878510797E-05
(PID.TID 0000.0001)  cg2d: iter=    54 ; resid.=  1.48087840027798E-05
(PID.TID 0000.0001)  cg2d: iter=    55 ; resid.=  1.20147123154269E-05
(PID.TID 0000.0001)  cg2d: iter=    56 ; resid.=  1.06269087083449E-05
(PID.TID 0000.0001)  cg2d: iter=    57 ; resid.=  8.70889935682953E-06
(PID.TID 0000.0001)  cg2d: iter=    58 ; resid.=  6.96074286950788E-06
(PID.TID 0000.0001)  cg2d: iter=    59 ; resid.=  5.48725957941574E-06
(PID.TID 0000.0001)  cg2d: iter=    60 ; resid.=  4.43721306028530E-06
(PID.TID 0000.0001)  cg2d: iter=    61 ; resid.=  3.72072404205298E-06
(PID.TID 0000.0001)  cg2d: iter=    62 ; resid.=  3.18128859237342E-06
(PID.TID 0000.0001)  cg2d: iter=    63 ; resid.=  2.43599457013885E-06
(PID.TID 0000.0001)  cg2d: iter=    64 ; resid.=  2.00857800725693E-06
(PID.TID 0000.0001)  cg2d: iter=    65 ; resid.=  1.52482163932773E-06
(PID.TID 0000.0001)  cg2d: iter=    66 ; resid.=  1.21882504670396E-06
(PID.TID 0000.0001)  cg2d: iter=    67 ; resid.=  1.04975406269488E-06
(PID.TID 0000.0001)  cg2d: iter=    68 ; resid.=  9.44489948050875E-07
(PID.TID 0000.0001)  cg2d: iter=    69 ; resid.=  7.67236517156647E-07
(PID.TID 0000.0001)  cg2d: iter=    70 ; resid.=  6.16606552111172E-07
(PID.TID 0000.0001)  cg2d: iter=    71 ; resid.=  5.11833364088507E-07
(PID.TID 0000.0001)  cg2d: iter=    72 ; resid.=  4.53844805760334E-07
(PID.TID 0000.0001)  cg2d: iter=    73 ; resid.=  4.19871429028144E-07
(PID.TID 0000.0001)  cg2d: iter=    74 ; resid.=  3.79949879219598E-07
(PID.TID 0000.0001)  cg2d: iter=    75 ; resid.=  3.12369860134694E-07
(PID.TID 0000.0001)  cg2d: iter=    76 ; resid.=  2.79137747350943E-07
(PID.TID 0000.0001)  cg2d: iter=    77 ; resid.=  2.19840736015764E-07
(PID.TID 0000.0001)  cg2d: iter=    78 ; resid.=  1.61832980964950E-07
(PID.TID 0000.0001)  cg2d: iter=    79 ; resid.=  1.30367582994414E-07
(PID.TID 0000.0001)  cg2d: iter=    80 ; resid.=  9.35257786389776E-08
(PID.TID 0000.0001)  cg2d: iter=    81 ; resid.=  7.06641132301807E-08
(PID.TID 0000.0001)  cg2d: iter=    82 ; resid.=  5.40976179999351E-08
(PID.TID 0000.0001)  cg2d: iter=    83 ; resid.=  4.12225063359404E-08
(PID.TID 0000.0001)  cg2d: iter=    84 ; resid.=  3.05236903793472E-08
(PID.TID 0000.0001)  cg2d: iter=    85 ; resid.=  2.26722536899248E-08
(PID.TID 0000.0001)  cg2d: iter=    86 ; resid.=  1.65166166210363E-08
(PID.TID 0000.0001)  cg2d: iter=    87 ; resid.=  1.17078528658205E-08
(PID.TID 0000.0001)  cg2d: iter=    88 ; resid.=  8.55747869423884E-09
(PID.TID 0000.0001)  cg2d: iter=    89 ; resid.=  6.93045509904614E-09
(PID.TID 0000.0001)  cg2d: iter=    90 ; resid.=  5.98869805175164E-09
(PID.TID 0000.0001)  cg2d: iter=    91 ; resid.=  5.17826320490322E-09
(PID.TID 0000.0001)  cg2d: iter=    92 ; resid.=  4.18258315712322E-09
(PID.TID 0000.0001)  cg2d: iter=    93 ; resid.=  3.71328494183832E-09
(PID.TID 0000.0001)  cg2d: iter=    94 ; resid.=  3.16590307458858E-09
(PID.TID 0000.0001)  cg2d: iter=    95 ; resid.=  2.66819898469834E-09
(PID.TID 0000.0001)  cg2d: iter=    96 ; resid.=  2.01818099624815E-09
(PID.TID 0000.0001)  cg2d: iter=    97 ; resid.=  1.59973451843835E-09
(PID.TID 0000.0001)  cg2d: iter=    98 ; resid.=  1.26394062361221E-09
(PID.TID 0000.0001)  cg2d: iter=    99 ; resid.=  1.06547191592564E-09
(PID.TID 0000.0001)  cg2d: iter=   100 ; resid.=  9.10544306741742E-10
(PID.TID 0000.0001)  cg2d: iter=   101 ; resid.=  7.30335723159739E-10
(PID.TID 0000.0001)  cg2d: iter=   102 ; resid.=  5.54872579689182E-10
(PID.TID 0000.0001)  cg2d: iter=   103 ; resid.=  3.78077772964144E-10
(PID.TID 0000.0001)  cg2d: iter=   104 ; resid.=  2.91865104418926E-10
(PID.TID 0000.0001)  cg2d: iter=   105 ; resid.=  2.24681966528641E-10
(PID.TID 0000.0001)  cg2d: iter=   106 ; resid.=  1.82059517749924E-10
(PID.TID 0000.0001)  cg2d: iter=   107 ; resid.=  1.46048011438643E-10
(PID.TID 0000.0001)  cg2d: iter=   108 ; resid.=  1.08115974976393E-10
(PID.TID 0000.0001)  cg2d: iter=   109 ; resid.=  7.97282626408408E-11
(PID.TID 0000.0001)  cg2d: iter=   110 ; resid.=  5.68601788489514E-11
(PID.TID 0000.0001)  cg2d: iter=   111 ; resid.=  4.18480213621912E-11
(PID.TID 0000.0001)  cg2d: iter=   112 ; resid.=  3.22375125086309E-11
(PID.TID 0000.0001)  cg2d: iter=   113 ; resid.=  2.20215391777298E-11
(PID.TID 0000.0001)  cg2d: iter=   114 ; resid.=  1.62706132527309E-11
(PID.TID 0000.0001)  cg2d: iter=   115 ; resid.=  1.21378713782289E-11
(PID.TID 0000.0001)  cg2d: iter=   116 ; resid.=  8.69514186368450E-12
(PID.TID 0000.0001)  cg2d: iter=   117 ; resid.=  6.31572177844722E-12
(PID.TID 0000.0001)  cg2d: iter=   118 ; resid.=  4.97394205495778E-12
(PID.TID 0000.0001)  cg2d: iter=   119 ; resid.=  3.99170792765086E-12
(PID.TID 0000.0001)  cg2d: iter=   120 ; resid.=  3.29395213138419E-12
(PID.TID 0000.0001)  cg2d: iter=   121 ; resid.=  2.74256426709015E-12
(PID.TID 0000.0001)  cg2d: iter=   122 ; resid.=  2.11889015193960E-12
(PID.TID 0000.0001)  cg2d: iter=   123 ; resid.=  1.65092763080201E-12
(PID.TID 0000.0001)  cg2d: iter=   124 ; resid.=  1.32187308349960E-12
(PID.TID 0000.0001)  cg2d: iter=   125 ; resid.=  1.10637107214518E-12
(PID.TID 0000.0001)  cg2d: iter=   126 ; resid.=  8.68108315762206E-13
(PID.TID 0000.0001)  cg2d: iter=   127 ; resid.=  5.45661102487924E-13
(PID.TID 0000.0001)  cg2d: iter=   128 ; resid.=  3.68860311472122E-13
(PID.TID 0000.0001)  cg2d: iter=   129 ; resid.=  2.47684868650340E-13
(PID.TID 0000.0001)  cg2d: iter=   130 ; resid.=  1.71272644681271E-13
(PID.TID 0000.0001)  cg2d: iter=   131 ; resid.=  1.20785487465336E-13
(PID.TID 0000.0001)  cg2d: iter=   132 ; resid.=  8.55107196007959E-14
DEBUG_STATS_RL:    cg2d_x (SOLVE_FOR_PRESSURE)  min= -1.67320738533276E+01
DEBUG_STATS_RL:    cg2d_x (SOLVE_FOR_PRESSURE)  max=  8.43936199180944E+00
DEBUG_STATS_RL:    cg2d_x (SOLVE_FOR_PRESSURE) mean= -1.57170641000389E+00
DEBUG_STATS_RL:    cg2d_x (SOLVE_FOR_PRESSURE) S.D.=  6.26517776794583E+00
(PID.TID 0000.0001)      cg2d_init_res =   4.52573121813462E-01
(PID.TID 0000.0001)      cg2d_iters(min,last) =      -1     132
(PID.TID 0000.0001)      cg2d_last_res =   8.55107196007959E-14
(PID.TID 0000.0001) // =======================================================
(PID.TID 0000.0001) // Begin MONITOR dynamic field statistics
(PID.TID 0000.0001) // =======================================================
(PID.TID 0000.0001) %MON time_tsnumber                =                    32
(PID.TID 0000.0001) %MON time_secondsf                =   2.7648000000000E+06
(PID.TID 0000.0001) %MON dynstat_eta_max              =   8.6028154860443E-01
(PID.TID 0000.0001) %MON dynstat_eta_min              =  -1.7056140523270E+00
(PID.TID 0000.0001) %MON dynstat_eta_mean             =  -2.3753255862622E-03
(PID.TID 0000.0001) %MON dynstat_eta_sd               =   5.5390891059155E-01
(PID.TID 0000.0001) %MON dynstat_eta_del2             =   2.1511811844506E-03
(PID.TID 0000.0001) %MON dynstat_uvel_max             =   1.0819111192594E-01
(PID.TID 0000.0001) %MON dynstat_uvel_min             =  -1.7368154551832E-01
(PID.TID 0000.0001) %MON dynstat_uvel_mean            =   1.8265046653442E-03
(PID.TID 0000.0001) %MON dynstat_uvel_sd              =   1.3228506483045E-02
(PID.TID 0000.0001) %MON dynstat_uvel_del2            =   7.7510455975574E-05
(PID.TID 0000.0001) %MON dynstat_vvel_max             =   1.1810807497332E-01
(PID.TID 0000.0001) %MON dynstat_vvel_min             =  -1.1775484067313E-01
(PID.TID 0000.0001) %MON dynstat_vvel_mean            =  -7.3924939878063E-05
(PID.TID 0000.0001) %MON dynstat_vvel_sd              =   8.8000709637031E-03
(PID.TID 0000.0001) %MON dynstat_vvel_del2            =   7.6440191266363E-05
(PID.TID 0000.0001) %MON dynstat_wvel_max             =   1.0442096085648E-04
(PID.TID 0000.0001) %MON dynstat_wvel_min             =  -1.0340339321019E-04
(PID.TID 0000.0001) %MON dynstat_wvel_mean            =  -4.7137670217417E-22
(PID.TID 0000.0001) %MON dynstat_wvel_sd              =   1.4263562718630E-05
(PID.TID 0000.0001) %MON dynstat_wvel_del2            =   1.7009361755662E-07
(PID.TID 0000.0001) %MON dynstat_theta_max            =   3.0015883845836E+01
(PID.TID 0000.0001) %MON dynstat_theta_min            =  -2.0063756990475E+00
(PID.TID 0000.0001) %MON dynstat_theta_mean           =   3.6312771895947E+00
(PID.TID 0000.0001) %MON dynstat_theta_sd             =   4.4177046584155E+00
(PID.TID 0000.0001) %MON dynstat_theta_del2           =   4.8269696023084E-03
(PID.TID 0000.0001) %MON dynstat_salt_max             =   3.7462988981401E+01
(PID.TID 0000.0001) %MON dynstat_salt_min             =   2.9831759374497E+01
(PID.TID 0000.0001) %MON dynstat_salt_mean            =   3.4727974063968E+01
(PID.TID 0000.0001) %MON dynstat_salt_sd              =   2.9624397110529E-01
(PID.TID 0000.0001) %MON dynstat_salt_del2            =   9.9478157118611E-04
(PID.TID 0000.0001) %MON dynstat_sst_max              =   3.0015883845836E+01
(PID.TID 0000.0001) %MON dynstat_sst_min              =  -2.0063756990475E+00
(PID.TID 0000.0001) %MON dynstat_sst_mean             =   1.8761754081158E+01
(PID.TID 0000.0001) %MON dynstat_sst_sd               =   9.0463932678969E+00
(PID.TID 0000.0001) %MON dynstat_sst_del2             =   2.6711582437218E-02
(PID.TID 0000.0001) %MON dynstat_sss_max              =   3.7442291825915E+01
(PID.TID 0000.0001) %MON dynstat_sss_min              =   2.9831759374497E+01
(PID.TID 0000.0001) %MON dynstat_sss_mean             =   3.4855548611926E+01
(PID.TID 0000.0001) %MON dynstat_sss_sd               =   9.7558543521457E-01
(PID.TID 0000.0001) %MON dynstat_sss_del2             =   7.8655131118636E-03
(PID.TID 0000.0001) %MON forcing_qnet_max             =   3.8850822957357E+02
(PID.TID 0000.0001) %MON forcing_qnet_min             =  -1.7618723856608E+02
(PID.TID 0000.0001) %MON forcing_qnet_mean            =  -1.5153979322590E+01
(PID.TID 0000.0001) %MON forcing_qnet_sd              =   9.3101706459460E+01
(PID.TID 0000.0001) %MON forcing_qnet_del2            =   9.7073809157123E-01
(PID.TID 0000.0001) %MON forcing_qsw_max              =   0.0000000000000E+00
(PID.TID 0000.0001) %MON forcing_qsw_min              =   0.0000000000000E+00
(PID.TID 0000.0001) %MON forcing_qsw_mean             =   0.0000000000000E+00
(PID.TID 0000.0001) %MON forcing_qsw_sd               =   0.0000000000000E+00
(PID.TID 0000.0001) %MON forcing_qsw_del2             =   0.0000000000000E+00
(PID.TID 0000.0001) %MON forcing_empmr_max            =   7.7148803256932E-05
(PID.TID 0000.0001) %MON forcing_empmr_min            =  -7.7430264392812E-05
(PID.TID 0000.0001) %MON forcing_empmr_mean           =   9.3385541826996E-07
(PID.TID 0000.0001) %MON forcing_empmr_sd             =   2.8159654457023E-05
(PID.TID 0000.0001) %MON forcing_empmr_del2           =   3.5467644143970E-07
(PID.TID 0000.0001) %MON forcing_fu_max               =   2.8521531224251E-01
(PID.TID 0000.0001) %MON forcing_fu_min               =  -1.9249341785908E-01
(PID.TID 0000.0001) %MON forcing_fu_mean              =   1.6870538600070E-02
(PID.TID 0000.0001) %MON forcing_fu_sd                =   9.0164710524852E-02
(PID.TID 0000.0001) %MON forcing_fu_del2              =   6.6983433008820E-04
(PID.TID 0000.0001) %MON forcing_fv_max               =   1.8811390101910E-01
(PID.TID 0000.0001) %MON forcing_fv_min               =  -1.6227610409260E-01
(PID.TID 0000.0001) %MON forcing_fv_mean              =  -6.3030722469479E-03
(PID.TID 0000.0001) %MON forcing_fv_sd                =   4.4812198805099E-02
(PID.TID 0000.0001) %MON forcing_fv_del2              =   4.6773713492803E-04
(PID.TID 0000.0001) %MON trAdv_CFL_u_max              =   3.5665753933122E-02
(PID.TID 0000.0001) %MON trAdv_CFL_v_max              =   2.4308087283165E-02
(PID.TID 0000.0001) %MON trAdv_CFL_w_max              =   4.7817326415517E-02
(PID.TID 0000.0001) %MON advcfl_uvel_max              =   3.5761016099683E-02
(PID.TID 0000.0001) %MON advcfl_vvel_max              =   2.2946504741528E-02
(PID.TID 0000.0001) %MON advcfl_wvel_max              =   4.3792191132261E-02
(PID.TID 0000.0001) %MON advcfl_W_hf_max              =   5.1612225263022E-02
(PID.TID 0000.0001) %MON pe_b_mean                    =   3.9261409756622E-04
(PID.TID 0000.0001) %MON ke_max                       =   1.5120276568745E-02
(PID.TID 0000.0001) %MON ke_mean                      =   1.1578701686242E-04
(PID.TID 0000.0001) %MON ke_vol                       =   1.3226782436723E+18
(PID.TID 0000.0001) %MON vort_r_min                   =  -3.2767817613525E-07
(PID.TID 0000.0001) %MON vort_r_max                   =   4.2636348631905E-07
(PID.TID 0000.0001) %MON vort_a_mean                  =  -2.5274807469913E-05
(PID.TID 0000.0001) %MON vort_a_sd                    =   7.3604569931470E-05
(PID.TID 0000.0001) %MON vort_p_mean                  =  -3.1845655890772E-05
(PID.TID 0000.0001) %MON vort_p_sd                    =   1.3162639118454E-04
(PID.TID 0000.0001) %MON surfExpan_theta_mean         =   3.3616779127650E-07
(PID.TID 0000.0001) %MON surfExpan_salt_mean          =  -1.0344126248625E-07
(PID.TID 0000.0001) // =======================================================
(PID.TID 0000.0001) // End MONITOR dynamic field statistics
(PID.TID 0000.0001) // =======================================================
 EXTERNAL_FIELDS_LOAD,        32 : iP,iLd,i0,i1=    1    2    1    2 ; Wght=  0.4333333333  0.5666666667
 EXTERNAL_FIELDS_LOAD: (fu0,1),fu,fv= -3.5633E-02 -1.4435E-02 -2.3621E-02 -3.4805E-02
 EXTERNAL_FIELDS_LOAD: SST,SSS,Q,E-P=  1.1393E-01  3.4548E+01  2.5144E+02  9.7896E-06
DEBUG_STATS_RL:          Uvel (THERMODYNAMICS)  min= -1.73681545518320E-01
DEBUG_STATS_RL:          Uvel (THERMODYNAMICS)  max=  1.08191111925938E-01
DEBUG_STATS_RL:          Uvel (THERMODYNAMICS) mean=  2.72249617736126E-03
DEBUG_STATS_RL:          Uvel (THERMODYNAMICS) S.D.=  1.97860778860135E-02
DEBUG_STATS_RL:          Vvel (THERMODYNAMICS)  min= -1.17754840673128E-01
DEBUG_STATS_RL:          Vvel (THERMODYNAMICS)  max=  1.18108074973319E-01
DEBUG_STATS_RL:          Vvel (THERMODYNAMICS) mean=  4.38289889041507E-05
DEBUG_STATS_RL:          Vvel (THERMODYNAMICS) S.D.=  1.32474306887557E-02
DEBUG_STATS_RL:          Wvel (THERMODYNAMICS)  min= -1.03403393210193E-04
DEBUG_STATS_RL:          Wvel (THERMODYNAMICS)  max=  1.04420960856483E-04
DEBUG_STATS_RL:          Wvel (THERMODYNAMICS) mean= -1.81602536631059E-07
DEBUG_STATS_RL:          Wvel (THERMODYNAMICS) S.D.=  1.29599378820397E-05
DEBUG_STATS_RL:         Theta (THERMODYNAMICS)  min= -2.00569623500530E+00
DEBUG_STATS_RL:         Theta (THERMODYNAMICS)  max=  3.00357595521472E+01
DEBUG_STATS_RL:         Theta (THERMODYNAMICS) mean=  3.21997717280256E+00
DEBUG_STATS_RL:         Theta (THERMODYNAMICS) S.D.=  5.85955348677864E+00
DEBUG_STATS_RL:          Salt (THERMODYNAMICS)  min=  9.99999999999998E-03
DEBUG_STATS_RL:          Salt (THERMODYNAMICS)  max=  3.74636411384505E+01
DEBUG_STATS_RL:          Salt (THERMODYNAMICS) mean=  1.88548683952335E+01
DEBUG_STATS_RL:          Salt (THERMODYNAMICS) S.D.=  1.73003812912116E+01
DEBUG_STATS_RL:         GtNm1 (THERMODYNAMICS)  min= -3.03358217229314E-06
DEBUG_STATS_RL:         GtNm1 (THERMODYNAMICS)  max=  2.34794981324033E-06
DEBUG_STATS_RL:         GtNm1 (THERMODYNAMICS) mean=  7.71785643300473E-09
DEBUG_STATS_RL:         GtNm1 (THERMODYNAMICS) S.D.=  2.07805845231178E-07
DEBUG_STATS_RL:         GsNm1 (THERMODYNAMICS)  min= -5.18518364079125E-07
DEBUG_STATS_RL:         GsNm1 (THERMODYNAMICS)  max=  3.12061739955180E-07
DEBUG_STATS_RL:         GsNm1 (THERMODYNAMICS) mean= -5.17120925807856E-10
DEBUG_STATS_RL:         GsNm1 (THERMODYNAMICS) S.D.=  1.79938227237641E-08
DEBUG_STATS_RL:                EtaN (DYNAMICS)  min= -1.70561405232702E+00
DEBUG_STATS_RL:                EtaN (DYNAMICS)  max=  8.60281548604432E-01
DEBUG_STATS_RL:                EtaN (DYNAMICS) mean= -1.60214720693569E-01
DEBUG_STATS_RL:                EtaN (DYNAMICS) S.D.=  6.38652167986329E-01
DEBUG_STATS_RL:                Uvel (DYNAMICS)  min= -1.73681545518320E-01
DEBUG_STATS_RL:                Uvel (DYNAMICS)  max=  1.08191111925938E-01
DEBUG_STATS_RL:                Uvel (DYNAMICS) mean=  2.72249617736126E-03
DEBUG_STATS_RL:                Uvel (DYNAMICS) S.D.=  1.97860778860135E-02
DEBUG_STATS_RL:                Vvel (DYNAMICS)  min= -1.17754840673128E-01
DEBUG_STATS_RL:                Vvel (DYNAMICS)  max=  1.18108074973319E-01
DEBUG_STATS_RL:                Vvel (DYNAMICS) mean=  4.38289889041507E-05
DEBUG_STATS_RL:                Vvel (DYNAMICS) S.D.=  1.32474306887557E-02
DEBUG_STATS_RL:                Wvel (DYNAMICS)  min= -1.03403393210193E-04
DEBUG_STATS_RL:                Wvel (DYNAMICS)  max=  1.04420960856483E-04
DEBUG_STATS_RL:                Wvel (DYNAMICS) mean= -1.81602536631059E-07
DEBUG_STATS_RL:                Wvel (DYNAMICS) S.D.=  1.29599378820397E-05
DEBUG_STATS_RL:               Theta (DYNAMICS)  min= -2.00569623500530E+00
DEBUG_STATS_RL:               Theta (DYNAMICS)  max=  3.00357595521472E+01
DEBUG_STATS_RL:               Theta (DYNAMICS) mean=  3.21997717280256E+00
DEBUG_STATS_RL:               Theta (DYNAMICS) S.D.=  5.85955348677864E+00
DEBUG_STATS_RL:                Salt (DYNAMICS)  min=  9.99999999999998E-03
DEBUG_STATS_RL:                Salt (DYNAMICS)  max=  3.74636411384505E+01
DEBUG_STATS_RL:                Salt (DYNAMICS) mean=  1.88548683952335E+01
DEBUG_STATS_RL:                Salt (DYNAMICS) S.D.=  1.73003812912116E+01
DEBUG_STATS_RL:                  Gu (DYNAMICS)  min= -1.74399507953382E-01
DEBUG_STATS_RL:                  Gu (DYNAMICS)  max=  9.41292871920079E-02
DEBUG_STATS_RL:                  Gu (DYNAMICS) mean=  2.75078708509375E-03
DEBUG_STATS_RL:                  Gu (DYNAMICS) S.D.=  2.05860366187120E-02
DEBUG_STATS_RL:                  Gv (DYNAMICS)  min= -1.18917395762532E-01
DEBUG_STATS_RL:                  Gv (DYNAMICS)  max=  1.09887055169946E-01
DEBUG_STATS_RL:                  Gv (DYNAMICS) mean=  2.22135278178160E-03
DEBUG_STATS_RL:                  Gv (DYNAMICS) S.D.=  1.37828935788220E-02
DEBUG_STATS_RL:               GuNm1 (DYNAMICS)  min= -8.07484093887299E-06
DEBUG_STATS_RL:               GuNm1 (DYNAMICS)  max=  7.75169411634630E-06
DEBUG_STATS_RL:               GuNm1 (DYNAMICS) mean= -1.87035717629180E-08
DEBUG_STATS_RL:               GuNm1 (DYNAMICS) S.D.=  1.19467477667068E-06
DEBUG_STATS_RL:               GvNm1 (DYNAMICS)  min= -1.08403734359543E-05
DEBUG_STATS_RL:               GvNm1 (DYNAMICS)  max=  1.65371013704001E-05
DEBUG_STATS_RL:               GvNm1 (DYNAMICS) mean=  7.58972250362691E-07
DEBUG_STATS_RL:               GvNm1 (DYNAMICS) S.D.=  2.64944476020782E-06
DEBUG_STATS_RL:               GtNm1 (DYNAMICS)  min= -3.03358217229314E-06
DEBUG_STATS_RL:               GtNm1 (DYNAMICS)  max=  2.34794981324033E-06
DEBUG_STATS_RL:               GtNm1 (DYNAMICS) mean=  7.71785643300473E-09
DEBUG_STATS_RL:               GtNm1 (DYNAMICS) S.D.=  2.07805845231178E-07
DEBUG_STATS_RL:               GsNm1 (DYNAMICS)  min= -5.18518364079125E-07
DEBUG_STATS_RL:               GsNm1 (DYNAMICS)  max=  3.12061739955180E-07
DEBUG_STATS_RL:               GsNm1 (DYNAMICS) mean= -5.17120925807856E-10
DEBUG_STATS_RL:               GsNm1 (DYNAMICS) S.D.=  1.79938227237641E-08
DEBUG_STATS_RL:    cg2d_b (SOLVE_FOR_PRESSURE)  min= -2.00515722381983E+04
DEBUG_STATS_RL:    cg2d_b (SOLVE_FOR_PRESSURE)  max=  1.78184816825889E+04
DEBUG_STATS_RL:    cg2d_b (SOLVE_FOR_PRESSURE) mean=  2.35134713487246E+00
DEBUG_STATS_RL:    cg2d_b (SOLVE_FOR_PRESSURE) S.D.=  3.80553063786240E+03
 cg2d: Sum(rhs),rhsMax =   2.71468419162664E-01  1.31704095119994E+00
(PID.TID 0000.0001)  cg2d: iter=     1 ; resid.=  1.71704081210689E-01
(PID.TID 0000.0001)  cg2d: iter=     2 ; resid.=  1.55545833505208E-01
(PID.TID 0000.0001)  cg2d: iter=     3 ; resid.=  1.47762743283283E-01
(PID.TID 0000.0001)  cg2d: iter=     4 ; resid.=  1.31624437078883E-01
(PID.TID 0000.0001)  cg2d: iter=     5 ; resid.=  1.25744096479814E-01
(PID.TID 0000.0001)  cg2d: iter=     6 ; resid.=  1.07289324293775E-01
(PID.TID 0000.0001)  cg2d: iter=     7 ; resid.=  9.30459522926952E-02
(PID.TID 0000.0001)  cg2d: iter=     8 ; resid.=  6.67812008971628E-02
(PID.TID 0000.0001)  cg2d: iter=     9 ; resid.=  4.87567122101173E-02
(PID.TID 0000.0001)  cg2d: iter=    10 ; resid.=  3.88343838295171E-02
(PID.TID 0000.0001)  cg2d: iter=    11 ; resid.=  3.46039047011977E-02
(PID.TID 0000.0001)  cg2d: iter=    12 ; resid.=  2.92951886922046E-02
(PID.TID 0000.0001)  cg2d: iter=    13 ; resid.=  2.42413200536552E-02
(PID.TID 0000.0001)  cg2d: iter=    14 ; resid.=  2.02695545969961E-02
(PID.TID 0000.0001)  cg2d: iter=    15 ; resid.=  1.62099117871209E-02
(PID.TID 0000.0001)  cg2d: iter=    16 ; resid.=  1.39793043514033E-02
(PID.TID 0000.0001)  cg2d: iter=    17 ; resid.=  1.21266119993856E-02
(PID.TID 0000.0001)  cg2d: iter=    18 ; resid.=  1.06124652927200E-02
(PID.TID 0000.0001)  cg2d: iter=    19 ; resid.=  8.15608483952418E-03
(PID.TID 0000.0001)  cg2d: iter=    20 ; resid.=  6.24581784425803E-03
(PID.TID 0000.0001)  cg2d: iter=    21 ; resid.=  5.24057033517145E-03
(PID.TID 0000.0001)  cg2d: iter=    22 ; resid.=  4.52776182791858E-03
(PID.TID 0000.0001)  cg2d: iter=    23 ; resid.=  4.09874121457082E-03
(PID.TID 0000.0001)  cg2d: iter=    24 ; resid.=  3.76898518340227E-03
(PID.TID 0000.0001)  cg2d: iter=    25 ; resid.=  2.98101053335778E-03
(PID.TID 0000.0001)  cg2d: iter=    26 ; resid.=  2.41156262314319E-03
(PID.TID 0000.0001)  cg2d: iter=    27 ; resid.=  1.94114280751750E-03
(PID.TID 0000.0001)  cg2d: iter=    28 ; resid.=  1.56383316627819E-03
(PID.TID 0000.0001)  cg2d: iter=    29 ; resid.=  1.20977730184834E-03
(PID.TID 0000.0001)  cg2d: iter=    30 ; resid.=  9.61282174518620E-04
(PID.TID 0000.0001)  cg2d: iter=    31 ; resid.=  8.02851645051576E-04
(PID.TID 0000.0001)  cg2d: iter=    32 ; resid.=  6.56881107490277E-04
(PID.TID 0000.0001)  cg2d: iter=    33 ; resid.=  5.55595601195470E-04
(PID.TID 0000.0001)  cg2d: iter=    34 ; resid.=  4.61820642782868E-04
(PID.TID 0000.0001)  cg2d: iter=    35 ; resid.=  3.91027316891333E-04
(PID.TID 0000.0001)  cg2d: iter=    36 ; resid.=  3.26063698867324E-04
(PID.TID 0000.0001)  cg2d: iter=    37 ; resid.=  2.93197285947080E-04
(PID.TID 0000.0001)  cg2d: iter=    38 ; resid.=  2.65206183853808E-04
(PID.TID 0000.0001)  cg2d: iter=    39 ; resid.=  2.30488959037954E-04
(PID.TID 0000.0001)  cg2d: iter=    40 ; resid.=  1.86611169175685E-04
(PID.TID 0000.0001)  cg2d: iter=    41 ; resid.=  1.56988520784604E-04
(PID.TID 0000.0001)  cg2d: iter=    42 ; resid.=  1.39869218732858E-04
(PID.TID 0000.0001)  cg2d: iter=    43 ; resid.=  1.19107432570197E-04
(PID.TID 0000.0001)  cg2d: iter=    44 ; resid.=  9.62472035236896E-05
(PID.TID 0000.0001)  cg2d: iter=    45 ; resid.=  7.49553973318352E-05
(PID.TID 0000.0001)  cg2d: iter=    46 ; resid.=  6.01148105350979E-05
(PID.TID 0000.0001)  cg2d: iter=    47 ; resid.=  5.09539127121134E-05
(PID.TID 0000.0001)  cg2d: iter=    48 ; resid.=  4.03251772364820E-05
(PID.TID 0000.0001)  cg2d: iter=    49 ; resid.=  3.14074105850031E-05
(PID.TID 0000.0001)  cg2d: iter=    50 ; resid.=  2.63822329176876E-05
(PID.TID 0000.0001)  cg2d: iter=    51 ; resid.=  2.47946555872635E-05
(PID.TID 0000.0001)  cg2d: iter=    52 ; resid.=  2.16635396864158E-05
(PID.TID 0000.0001)  cg2d: iter=    53 ; resid.=  1.91575641272562E-05
(PID.TID 0000.0001)  cg2d: iter=    54 ; resid.=  1.64814391980294E-05
(PID.TID 0000.0001)  cg2d: iter=    55 ; resid.=  1.30171543493084E-05
(PID.TID 0000.0001)  cg2d: iter=    56 ; resid.=  1.10801464346429E-05
(PID.TID 0000.0001)  cg2d: iter=    57 ; resid.=  8.95785075773774E-06
(PID.TID 0000.0001)  cg2d: iter=    58 ; resid.=  7.09318041844680E-06
(PID.TID 0000.0001)  cg2d: iter=    59 ; resid.=  5.63482928741244E-06
(PID.TID 0000.0001)  cg2d: iter=    60 ; resid.=  4.54117377654821E-06
(PID.TID 0000.0001)  cg2d: iter=    61 ; resid.=  3.82476972766332E-06
(PID.TID 0000.0001)  cg2d: iter=    62 ; resid.=  3.28973643694712E-06
(PID.TID 0000.0001)  cg2d: iter=    63 ; resid.=  2.57029552622742E-06
(PID.TID 0000.0001)  cg2d: iter=    64 ; resid.=  2.12734368585798E-06
(PID.TID 0000.0001)  cg2d: iter=    65 ; resid.=  1.60525439466606E-06
(PID.TID 0000.0001)  cg2d: iter=    66 ; resid.=  1.31933913934682E-06
(PID.TID 0000.0001)  cg2d: iter=    67 ; resid.=  1.12508605185577E-06
(PID.TID 0000.0001)  cg2d: iter=    68 ; resid.=  1.03209185517604E-06
(PID.TID 0000.0001)  cg2d: iter=    69 ; resid.=  8.37903971673411E-07
(PID.TID 0000.0001)  cg2d: iter=    70 ; resid.=  6.78369485462118E-07
(PID.TID 0000.0001)  cg2d: iter=    71 ; resid.=  5.65857659255696E-07
(PID.TID 0000.0001)  cg2d: iter=    72 ; resid.=  5.07504103959922E-07
(PID.TID 0000.0001)  cg2d: iter=    73 ; resid.=  4.70139348338923E-07
(PID.TID 0000.0001)  cg2d: iter=    74 ; resid.=  4.16715435710144E-07
(PID.TID 0000.0001)  cg2d: iter=    75 ; resid.=  3.34916783836363E-07
(PID.TID 0000.0001)  cg2d: iter=    76 ; resid.=  2.89664638724928E-07
(PID.TID 0000.0001)  cg2d: iter=    77 ; resid.=  2.19908511243583E-07
(PID.TID 0000.0001)  cg2d: iter=    78 ; resid.=  1.57496664308352E-07
(PID.TID 0000.0001)  cg2d: iter=    79 ; resid.=  1.25553099612558E-07
(PID.TID 0000.0001)  cg2d: iter=    80 ; resid.=  8.86349992184235E-08
(PID.TID 0000.0001)  cg2d: iter=    81 ; resid.=  6.52092022417253E-08
(PID.TID 0000.0001)  cg2d: iter=    82 ; resid.=  5.03316344030533E-08
(PID.TID 0000.0001)  cg2d: iter=    83 ; resid.=  3.90207442776999E-08
(PID.TID 0000.0001)  cg2d: iter=    84 ; resid.=  2.90332073300039E-08
(PID.TID 0000.0001)  cg2d: iter=    85 ; resid.=  2.16753789153503E-08
(PID.TID 0000.0001)  cg2d: iter=    86 ; resid.=  1.60295278050054E-08
(PID.TID 0000.0001)  cg2d: iter=    87 ; resid.=  1.19357532454482E-08
(PID.TID 0000.0001)  cg2d: iter=    88 ; resid.=  8.94732422638419E-09
(PID.TID 0000.0001)  cg2d: iter=    89 ; resid.=  7.33237065591893E-09
(PID.TID 0000.0001)  cg2d: iter=    90 ; resid.=  6.44591838671896E-09
(PID.TID 0000.0001)  cg2d: iter=    91 ; resid.=  5.56727862293160E-09
(PID.TID 0000.0001)  cg2d: iter=    92 ; resid.=  4.48109711742315E-09
(PID.TID 0000.0001)  cg2d: iter=    93 ; resid.=  3.95047446055699E-09
(PID.TID 0000.0001)  cg2d: iter=    94 ; resid.=  3.32083673644365E-09
(PID.TID 0000.0001)  cg2d: iter=    95 ; resid.=  2.78689035468046E-09
(PID.TID 0000.0001)  cg2d: iter=    96 ; resid.=  2.06425932500906E-09
(PID.TID 0000.0001)  cg2d: iter=    97 ; resid.=  1.59579917071091E-09
(PID.TID 0000.0001)  cg2d: iter=    98 ; resid.=  1.22184876359077E-09
(PID.TID 0000.0001)  cg2d: iter=    99 ; resid.=  1.02187880883012E-09
(PID.TID 0000.0001)  cg2d: iter=   100 ; resid.=  8.66811907493119E-10
(PID.TID 0000.0001)  cg2d: iter=   101 ; resid.=  7.23189939258431E-10
(PID.TID 0000.0001)  cg2d: iter=   102 ; resid.=  5.73782319859739E-10
(PID.TID 0000.0001)  cg2d: iter=   103 ; resid.=  4.06525691471770E-10
(PID.TID 0000.0001)  cg2d: iter=   104 ; resid.=  3.22181973757564E-10
(PID.TID 0000.0001)  cg2d: iter=   105 ; resid.=  2.52276244337582E-10
(PID.TID 0000.0001)  cg2d: iter=   106 ; resid.=  2.05941181623679E-10
(PID.TID 0000.0001)  cg2d: iter=   107 ; resid.=  1.60402700409983E-10
(PID.TID 0000.0001)  cg2d: iter=   108 ; resid.=  1.17112686913436E-10
(PID.TID 0000.0001)  cg2d: iter=   109 ; resid.=  8.59172828049488E-11
(PID.TID 0000.0001)  cg2d: iter=   110 ; resid.=  6.18348904375105E-11
(PID.TID 0000.0001)  cg2d: iter=   111 ; resid.=  4.70762546382425E-11
(PID.TID 0000.0001)  cg2d: iter=   112 ; resid.=  3.82622989314449E-11
(PID.TID 0000.0001)  cg2d: iter=   113 ; resid.=  2.77714155297241E-11
(PID.TID 0000.0001)  cg2d: iter=   114 ; resid.=  2.16975029296684E-11
(PID.TID 0000.0001)  cg2d: iter=   115 ; resid.=  1.72643196413215E-11
(PID.TID 0000.0001)  cg2d: iter=   116 ; resid.=  1.30483255615376E-11
(PID.TID 0000.0001)  cg2d: iter=   117 ; resid.=  1.03734007838120E-11
(PID.TID 0000.0001)  cg2d: iter=   118 ; resid.=  8.59312763067828E-12
(PID.TID 0000.0001)  cg2d: iter=   119 ; resid.=  6.85027755582487E-12
(PID.TID 0000.0001)  cg2d: iter=   120 ; resid.=  5.26241771165051E-12
(PID.TID 0000.0001)  cg2d: iter=   121 ; resid.=  4.07415968652140E-12
(PID.TID 0000.0001)  cg2d: iter=   122 ; resid.=  2.87326904203488E-12
(PID.TID 0000.0001)  cg2d: iter=   123 ; resid.=  2.04415386305087E-12
(PID.TID 0000.0001)  cg2d: iter=   124 ; resid.=  1.49114699139339E-12
(PID.TID 0000.0001)  cg2d: iter=   125 ; resid.=  1.15139225455419E-12
(PID.TID 0000.0001)  cg2d: iter=   126 ; resid.=  8.83439361988671E-13
(PID.TID 0000.0001)  cg2d: iter=   127 ; resid.=  5.51826166210493E-13
(PID.TID 0000.0001)  cg2d: iter=   128 ; resid.=  3.78907567653435E-13
(PID.TID 0000.0001)  cg2d: iter=   129 ; resid.=  2.56220078361346E-13
(PID.TID 0000.0001)  cg2d: iter=   130 ; resid.=  1.81168860891342E-13
(PID.TID 0000.0001)  cg2d: iter=   131 ; resid.=  1.29854045847094E-13
(PID.TID 0000.0001)  cg2d: iter=   132 ; resid.=  9.58586147237856E-14
DEBUG_STATS_RL:    cg2d_x (SOLVE_FOR_PRESSURE)  min= -1.68006310659018E+01
DEBUG_STATS_RL:    cg2d_x (SOLVE_FOR_PRESSURE)  max=  8.45525755669715E+00
DEBUG_STATS_RL:    cg2d_x (SOLVE_FOR_PRESSURE) mean= -1.58742134278753E+00
DEBUG_STATS_RL:    cg2d_x (SOLVE_FOR_PRESSURE) S.D.=  6.31222153005368E+00
(PID.TID 0000.0001)      cg2d_init_res =   4.55045095206270E-01
(PID.TID 0000.0001)      cg2d_iters(min,last) =      -1     132
(PID.TID 0000.0001)      cg2d_last_res =   9.58586147237856E-14
(PID.TID 0000.0001) // =======================================================
(PID.TID 0000.0001) // Begin MONITOR dynamic field statistics
(PID.TID 0000.0001) // =======================================================
(PID.TID 0000.0001) %MON time_tsnumber                =                    33
(PID.TID 0000.0001) %MON time_secondsf                =   2.8512000000000E+06
(PID.TID 0000.0001) %MON dynstat_eta_max              =   8.6190189161031E-01
(PID.TID 0000.0001) %MON dynstat_eta_min              =  -1.7126025551379E+00
(PID.TID 0000.0001) %MON dynstat_eta_mean             =  -2.4533391778198E-03
(PID.TID 0000.0001) %MON dynstat_eta_sd               =   5.6044541469481E-01
(PID.TID 0000.0001) %MON dynstat_eta_del2             =   2.1586506703269E-03
(PID.TID 0000.0001) %MON dynstat_uvel_max             =   1.0638146861865E-01
(PID.TID 0000.0001) %MON dynstat_uvel_min             =  -1.7270237375508E-01
(PID.TID 0000.0001) %MON dynstat_uvel_mean            =   1.8778863266226E-03
(PID.TID 0000.0001) %MON dynstat_uvel_sd              =   1.3397918491736E-02
(PID.TID 0000.0001) %MON dynstat_uvel_del2            =   7.8067785406581E-05
(PID.TID 0000.0001) %MON dynstat_vvel_max             =   1.1690575538866E-01
(PID.TID 0000.0001) %MON dynstat_vvel_min             =  -1.1226923470115E-01
(PID.TID 0000.0001) %MON dynstat_vvel_mean            =  -8.7257772928171E-05
(PID.TID 0000.0001) %MON dynstat_vvel_sd              =   8.8447951828216E-03
(PID.TID 0000.0001) %MON dynstat_vvel_del2            =   7.7295698317132E-05
(PID.TID 0000.0001) %MON dynstat_wvel_max             =   9.9748799751939E-05
(PID.TID 0000.0001) %MON dynstat_wvel_min             =  -1.0667497554665E-04
(PID.TID 0000.0001) %MON dynstat_wvel_mean            =  -3.3881849060101E-22
(PID.TID 0000.0001) %MON dynstat_wvel_sd              =   1.4455569452499E-05
(PID.TID 0000.0001) %MON dynstat_wvel_del2            =   1.7090936516852E-07
(PID.TID 0000.0001) %MON dynstat_theta_max            =   3.0035759552147E+01
(PID.TID 0000.0001) %MON dynstat_theta_min            =  -2.0056962350053E+00
(PID.TID 0000.0001) %MON dynstat_theta_mean           =   3.6313526523221E+00
(PID.TID 0000.0001) %MON dynstat_theta_sd             =   4.4178659026986E+00
(PID.TID 0000.0001) %MON dynstat_theta_del2           =   4.8165563306791E-03
(PID.TID 0000.0001) %MON dynstat_salt_max             =   3.7463641138451E+01
(PID.TID 0000.0001) %MON dynstat_salt_min             =   2.9831385054039E+01
(PID.TID 0000.0001) %MON dynstat_salt_mean            =   3.4727977485738E+01
(PID.TID 0000.0001) %MON dynstat_salt_sd              =   2.9625724686733E-01
(PID.TID 0000.0001) %MON dynstat_salt_del2            =   9.9323131687486E-04
(PID.TID 0000.0001) %MON dynstat_sst_max              =   3.0035759552147E+01
(PID.TID 0000.0001) %MON dynstat_sst_min              =  -2.0056962350053E+00
(PID.TID 0000.0001) %MON dynstat_sst_mean             =   1.8770686529951E+01
(PID.TID 0000.0001) %MON dynstat_sst_sd               =   9.0424460026059E+00
(PID.TID 0000.0001) %MON dynstat_sst_del2             =   2.6733324855336E-02
(PID.TID 0000.0001) %MON dynstat_sss_max              =   3.7442231919427E+01
(PID.TID 0000.0001) %MON dynstat_sss_min              =   2.9831385054039E+01
(PID.TID 0000.0001) %MON dynstat_sss_mean             =   3.4855170712405E+01
(PID.TID 0000.0001) %MON dynstat_sss_sd               =   9.7579611045411E-01
(PID.TID 0000.0001) %MON dynstat_sss_del2             =   7.8611116744258E-03
(PID.TID 0000.0001) %MON forcing_qnet_max             =   3.8518914286296E+02
(PID.TID 0000.0001) %MON forcing_qnet_min             =  -1.7594771931966E+02
(PID.TID 0000.0001) %MON forcing_qnet_mean            =  -1.5069070155187E+01
(PID.TID 0000.0001) %MON forcing_qnet_sd              =   9.2094283864091E+01
(PID.TID 0000.0001) %MON forcing_qnet_del2            =   9.6837633456498E-01
(PID.TID 0000.0001) %MON forcing_qsw_max              =   0.0000000000000E+00
(PID.TID 0000.0001) %MON forcing_qsw_min              =   0.0000000000000E+00
(PID.TID 0000.0001) %MON forcing_qsw_mean             =   0.0000000000000E+00
(PID.TID 0000.0001) %MON forcing_qsw_sd               =   0.0000000000000E+00
(PID.TID 0000.0001) %MON forcing_qsw_del2             =   0.0000000000000E+00
(PID.TID 0000.0001) %MON forcing_empmr_max            =   7.6834713524931E-05
(PID.TID 0000.0001) %MON forcing_empmr_min            =  -7.7509908654368E-05
(PID.TID 0000.0001) %MON forcing_empmr_mean           =   9.3453781552993E-07
(PID.TID 0000.0001) %MON forcing_empmr_sd             =   2.8134918761187E-05
(PID.TID 0000.0001) %MON forcing_empmr_del2           =   3.5437715861302E-07
(PID.TID 0000.0001) %MON forcing_fu_max               =   2.8660247027874E-01
(PID.TID 0000.0001) %MON forcing_fu_min               =  -1.9415334165096E-01
(PID.TID 0000.0001) %MON forcing_fu_mean              =   1.6924838815539E-02
(PID.TID 0000.0001) %MON forcing_fu_sd                =   9.0257397064876E-02
(PID.TID 0000.0001) %MON forcing_fu_del2              =   6.7159620997325E-04
(PID.TID 0000.0001) %MON forcing_fv_max               =   1.8701238036156E-01
(PID.TID 0000.0001) %MON forcing_fv_min               =  -1.6128480434418E-01
(PID.TID 0000.0001) %MON forcing_fv_mean              =  -6.3683331536630E-03
(PID.TID 0000.0001) %MON forcing_fv_sd                =   4.4725198845894E-02
(PID.TID 0000.0001) %MON forcing_fv_del2              =   4.7006525107410E-04
(PID.TID 0000.0001) %MON trAdv_CFL_u_max              =   3.5768279417820E-02
(PID.TID 0000.0001) %MON trAdv_CFL_v_max              =   2.3407239011602E-02
(PID.TID 0000.0001) %MON trAdv_CFL_w_max              =   4.7021332491372E-02
(PID.TID 0000.0001) %MON advcfl_uvel_max              =   3.5162864529795E-02
(PID.TID 0000.0001) %MON advcfl_vvel_max              =   2.2712913329118E-02
(PID.TID 0000.0001) %MON advcfl_wvel_max              =   4.2684456117620E-02
(PID.TID 0000.0001) %MON advcfl_W_hf_max              =   5.0306680424338E-02
(PID.TID 0000.0001) %MON pe_b_mean                    =   4.0193531204253E-04
(PID.TID 0000.0001) %MON ke_max                       =   1.5238613855905E-02
(PID.TID 0000.0001) %MON ke_mean                      =   1.1827808140795E-04
(PID.TID 0000.0001) %MON ke_vol                       =   1.3226782436723E+18
(PID.TID 0000.0001) %MON vort_r_min                   =  -3.4486648425733E-07
(PID.TID 0000.0001) %MON vort_r_max                   =   4.3285921803842E-07
(PID.TID 0000.0001) %MON vort_a_mean                  =  -2.5274807434831E-05
(PID.TID 0000.0001) %MON vort_a_sd                    =   7.3604581922271E-05
(PID.TID 0000.0001) %MON vort_p_mean                  =  -3.1845655846570E-05
(PID.TID 0000.0001) %MON vort_p_sd                    =   1.3162621503293E-04
(PID.TID 0000.0001) %MON surfExpan_theta_mean         =   3.8536294273414E-07
(PID.TID 0000.0001) %MON surfExpan_salt_mean          =  -1.0602774670582E-07
(PID.TID 0000.0001) // =======================================================
(PID.TID 0000.0001) // End MONITOR dynamic field statistics
(PID.TID 0000.0001) // =======================================================
 EXTERNAL_FIELDS_LOAD,        33 : iP,iLd,i0,i1=    1    2    1    2 ; Wght=  0.4000000000  0.6000000000
 EXTERNAL_FIELDS_LOAD: (fu0,1),fu,fv= -3.5633E-02 -1.4435E-02 -2.2914E-02 -3.3484E-02
 EXTERNAL_FIELDS_LOAD: SST,SSS,Q,E-P=  6.4256E-02  3.4538E+01  2.5060E+02  9.6810E-06
DEBUG_STATS_RL:          Uvel (THERMODYNAMICS)  min= -1.72702373755082E-01
DEBUG_STATS_RL:          Uvel (THERMODYNAMICS)  max=  1.06381468618653E-01
DEBUG_STATS_RL:          Uvel (THERMODYNAMICS) mean=  2.80408670657986E-03
DEBUG_STATS_RL:          Uvel (THERMODYNAMICS) S.D.=  2.02269957482897E-02
DEBUG_STATS_RL:          Vvel (THERMODYNAMICS)  min= -1.12269234701149E-01
DEBUG_STATS_RL:          Vvel (THERMODYNAMICS)  max=  1.16905755388665E-01
DEBUG_STATS_RL:          Vvel (THERMODYNAMICS) mean= -1.22872160640454E-04
DEBUG_STATS_RL:          Vvel (THERMODYNAMICS) S.D.=  1.32671303453175E-02
DEBUG_STATS_RL:          Wvel (THERMODYNAMICS)  min= -1.06674975546648E-04
DEBUG_STATS_RL:          Wvel (THERMODYNAMICS)  max=  9.97487997519392E-05
DEBUG_STATS_RL:          Wvel (THERMODYNAMICS) mean= -2.45861176380146E-07
DEBUG_STATS_RL:          Wvel (THERMODYNAMICS) S.D.=  1.31307337081226E-05
DEBUG_STATS_RL:         Theta (THERMODYNAMICS)  min= -2.00501292449316E+00
DEBUG_STATS_RL:         Theta (THERMODYNAMICS)  max=  3.00566211990695E+01
DEBUG_STATS_RL:         Theta (THERMODYNAMICS) mean=  3.22042283665412E+00
DEBUG_STATS_RL:         Theta (THERMODYNAMICS) S.D.=  5.85996427703947E+00
DEBUG_STATS_RL:          Salt (THERMODYNAMICS)  min=  9.99999999999998E-03
DEBUG_STATS_RL:          Salt (THERMODYNAMICS)  max=  3.74641951751522E+01
DEBUG_STATS_RL:          Salt (THERMODYNAMICS) mean=  1.88548522963337E+01
DEBUG_STATS_RL:          Salt (THERMODYNAMICS) S.D.=  1.73003674328987E+01
DEBUG_STATS_RL:         GtNm1 (THERMODYNAMICS)  min= -2.90662697392667E-06
DEBUG_STATS_RL:         GtNm1 (THERMODYNAMICS)  max=  2.26524649011322E-06
DEBUG_STATS_RL:         GtNm1 (THERMODYNAMICS) mean=  9.08750825009723E-09
DEBUG_STATS_RL:         GtNm1 (THERMODYNAMICS) S.D.=  2.06721822226056E-07
DEBUG_STATS_RL:         GsNm1 (THERMODYNAMICS)  min= -5.01279461949292E-07
DEBUG_STATS_RL:         GsNm1 (THERMODYNAMICS)  max=  2.79570573640141E-07
DEBUG_STATS_RL:         GsNm1 (THERMODYNAMICS) mean= -4.40009225249479E-10
DEBUG_STATS_RL:         GsNm1 (THERMODYNAMICS) S.D.=  1.78341967877696E-08
DEBUG_STATS_RL:                EtaN (DYNAMICS)  min= -1.71260255513789E+00
DEBUG_STATS_RL:                EtaN (DYNAMICS)  max=  8.61901891610312E-01
DEBUG_STATS_RL:                EtaN (DYNAMICS) mean= -1.61816650640931E-01
DEBUG_STATS_RL:                EtaN (DYNAMICS) S.D.=  6.43447658517192E-01
DEBUG_STATS_RL:                Uvel (DYNAMICS)  min= -1.72702373755082E-01
DEBUG_STATS_RL:                Uvel (DYNAMICS)  max=  1.06381468618653E-01
DEBUG_STATS_RL:                Uvel (DYNAMICS) mean=  2.80408670657986E-03
DEBUG_STATS_RL:                Uvel (DYNAMICS) S.D.=  2.02269957482897E-02
DEBUG_STATS_RL:                Vvel (DYNAMICS)  min= -1.12269234701149E-01
DEBUG_STATS_RL:                Vvel (DYNAMICS)  max=  1.16905755388665E-01
DEBUG_STATS_RL:                Vvel (DYNAMICS) mean= -1.22872160640454E-04
DEBUG_STATS_RL:                Vvel (DYNAMICS) S.D.=  1.32671303453175E-02
DEBUG_STATS_RL:                Wvel (DYNAMICS)  min= -1.06674975546648E-04
DEBUG_STATS_RL:                Wvel (DYNAMICS)  max=  9.97487997519392E-05
DEBUG_STATS_RL:                Wvel (DYNAMICS) mean= -2.45861176380146E-07
DEBUG_STATS_RL:                Wvel (DYNAMICS) S.D.=  1.31307337081226E-05
DEBUG_STATS_RL:               Theta (DYNAMICS)  min= -2.00501292449316E+00
DEBUG_STATS_RL:               Theta (DYNAMICS)  max=  3.00566211990695E+01
DEBUG_STATS_RL:               Theta (DYNAMICS) mean=  3.22042283665412E+00
DEBUG_STATS_RL:               Theta (DYNAMICS) S.D.=  5.85996427703947E+00
DEBUG_STATS_RL:                Salt (DYNAMICS)  min=  9.99999999999998E-03
DEBUG_STATS_RL:                Salt (DYNAMICS)  max=  3.74641951751522E+01
DEBUG_STATS_RL:                Salt (DYNAMICS) mean=  1.88548522963337E+01
DEBUG_STATS_RL:                Salt (DYNAMICS) S.D.=  1.73003674328987E+01
DEBUG_STATS_RL:                  Gu (DYNAMICS)  min= -1.72823828305152E-01
DEBUG_STATS_RL:                  Gu (DYNAMICS)  max=  1.03250865799550E-01
DEBUG_STATS_RL:                  Gu (DYNAMICS) mean=  2.81488053159551E-03
DEBUG_STATS_RL:                  Gu (DYNAMICS) S.D.=  2.10696275676559E-02
DEBUG_STATS_RL:                  Gv (DYNAMICS)  min= -1.12602025662909E-01
DEBUG_STATS_RL:                  Gv (DYNAMICS)  max=  1.08510081561529E-01
DEBUG_STATS_RL:                  Gv (DYNAMICS) mean=  2.09448961326931E-03
DEBUG_STATS_RL:                  Gv (DYNAMICS) S.D.=  1.36938226529808E-02
DEBUG_STATS_RL:               GuNm1 (DYNAMICS)  min= -8.14842899628763E-06
DEBUG_STATS_RL:               GuNm1 (DYNAMICS)  max=  7.83725106426002E-06
DEBUG_STATS_RL:               GuNm1 (DYNAMICS) mean= -1.94251930669506E-08
DEBUG_STATS_RL:               GuNm1 (DYNAMICS) S.D.=  1.19121827216534E-06
DEBUG_STATS_RL:               GvNm1 (DYNAMICS)  min= -1.07957156218698E-05
DEBUG_STATS_RL:               GvNm1 (DYNAMICS)  max=  1.64974943277503E-05
DEBUG_STATS_RL:               GvNm1 (DYNAMICS) mean=  7.57200973146117E-07
DEBUG_STATS_RL:               GvNm1 (DYNAMICS) S.D.=  2.64446994416886E-06
DEBUG_STATS_RL:               GtNm1 (DYNAMICS)  min= -2.90662697392667E-06
DEBUG_STATS_RL:               GtNm1 (DYNAMICS)  max=  2.26524649011322E-06
DEBUG_STATS_RL:               GtNm1 (DYNAMICS) mean=  9.08750825009723E-09
DEBUG_STATS_RL:               GtNm1 (DYNAMICS) S.D.=  2.06721822226056E-07
DEBUG_STATS_RL:               GsNm1 (DYNAMICS)  min= -5.01279461949292E-07
DEBUG_STATS_RL:               GsNm1 (DYNAMICS)  max=  2.79570573640141E-07
DEBUG_STATS_RL:               GsNm1 (DYNAMICS) mean= -4.40009225249479E-10
DEBUG_STATS_RL:               GsNm1 (DYNAMICS) S.D.=  1.78341967877696E-08
DEBUG_STATS_RL:    cg2d_b (SOLVE_FOR_PRESSURE)  min= -1.96791380597578E+04
DEBUG_STATS_RL:    cg2d_b (SOLVE_FOR_PRESSURE)  max=  1.74121231696034E+04
DEBUG_STATS_RL:    cg2d_b (SOLVE_FOR_PRESSURE) mean=  2.42617208444747E+00
DEBUG_STATS_RL:    cg2d_b (SOLVE_FOR_PRESSURE) S.D.=  3.78815436119738E+03
 cg2d: Sum(rhs),rhsMax =   2.85408251034175E-01  1.29257847719512E+00
(PID.TID 0000.0001)  cg2d: iter=     1 ; resid.=  1.72570046444288E-01
(PID.TID 0000.0001)  cg2d: iter=     2 ; resid.=  1.54213456697049E-01
(PID.TID 0000.0001)  cg2d: iter=     3 ; resid.=  1.48204279330013E-01
(PID.TID 0000.0001)  cg2d: iter=     4 ; resid.=  1.33083572882265E-01
(PID.TID 0000.0001)  cg2d: iter=     5 ; resid.=  1.29791594925848E-01
(PID.TID 0000.0001)  cg2d: iter=     6 ; resid.=  1.10359210983998E-01
(PID.TID 0000.0001)  cg2d: iter=     7 ; resid.=  9.57147913605604E-02
(PID.TID 0000.0001)  cg2d: iter=     8 ; resid.=  6.93292077416357E-02
(PID.TID 0000.0001)  cg2d: iter=     9 ; resid.=  5.07251449358950E-02
(PID.TID 0000.0001)  cg2d: iter=    10 ; resid.=  3.99657245596182E-02
(PID.TID 0000.0001)  cg2d: iter=    11 ; resid.=  3.56863636610439E-02
(PID.TID 0000.0001)  cg2d: iter=    12 ; resid.=  3.02406525904394E-02
(PID.TID 0000.0001)  cg2d: iter=    13 ; resid.=  2.49423078149355E-02
(PID.TID 0000.0001)  cg2d: iter=    14 ; resid.=  2.12765629391591E-02
(PID.TID 0000.0001)  cg2d: iter=    15 ; resid.=  1.69563534804496E-02
(PID.TID 0000.0001)  cg2d: iter=    16 ; resid.=  1.46651069662017E-02
(PID.TID 0000.0001)  cg2d: iter=    17 ; resid.=  1.27248480234009E-02
(PID.TID 0000.0001)  cg2d: iter=    18 ; resid.=  1.11614417355069E-02
(PID.TID 0000.0001)  cg2d: iter=    19 ; resid.=  8.59365648197801E-03
(PID.TID 0000.0001)  cg2d: iter=    20 ; resid.=  6.57230431065135E-03
(PID.TID 0000.0001)  cg2d: iter=    21 ; resid.=  5.46761435933801E-03
(PID.TID 0000.0001)  cg2d: iter=    22 ; resid.=  4.71058259099679E-03
(PID.TID 0000.0001)  cg2d: iter=    23 ; resid.=  4.26544254192279E-03
(PID.TID 0000.0001)  cg2d: iter=    24 ; resid.=  4.00172160138203E-03
(PID.TID 0000.0001)  cg2d: iter=    25 ; resid.=  3.16818926416623E-03
(PID.TID 0000.0001)  cg2d: iter=    26 ; resid.=  2.53201664759226E-03
(PID.TID 0000.0001)  cg2d: iter=    27 ; resid.=  1.98107311507527E-03
(PID.TID 0000.0001)  cg2d: iter=    28 ; resid.=  1.56179829390717E-03
(PID.TID 0000.0001)  cg2d: iter=    29 ; resid.=  1.18090515393730E-03
(PID.TID 0000.0001)  cg2d: iter=    30 ; resid.=  9.46171380229400E-04
(PID.TID 0000.0001)  cg2d: iter=    31 ; resid.=  7.91554640986619E-04
(PID.TID 0000.0001)  cg2d: iter=    32 ; resid.=  6.56473758966845E-04
(PID.TID 0000.0001)  cg2d: iter=    33 ; resid.=  5.72082165059074E-04
(PID.TID 0000.0001)  cg2d: iter=    34 ; resid.=  4.89568877891307E-04
(PID.TID 0000.0001)  cg2d: iter=    35 ; resid.=  4.20942753130439E-04
(PID.TID 0000.0001)  cg2d: iter=    36 ; resid.=  3.55287043405279E-04
(PID.TID 0000.0001)  cg2d: iter=    37 ; resid.=  3.13598544389493E-04
(PID.TID 0000.0001)  cg2d: iter=    38 ; resid.=  2.81460416482951E-04
(PID.TID 0000.0001)  cg2d: iter=    39 ; resid.=  2.42771307537119E-04
(PID.TID 0000.0001)  cg2d: iter=    40 ; resid.=  1.93926222482214E-04
(PID.TID 0000.0001)  cg2d: iter=    41 ; resid.=  1.61277155254301E-04
(PID.TID 0000.0001)  cg2d: iter=    42 ; resid.=  1.41613821018738E-04
(PID.TID 0000.0001)  cg2d: iter=    43 ; resid.=  1.21415354893025E-04
(PID.TID 0000.0001)  cg2d: iter=    44 ; resid.=  9.92421030921184E-05
(PID.TID 0000.0001)  cg2d: iter=    45 ; resid.=  7.66893008145517E-05
(PID.TID 0000.0001)  cg2d: iter=    46 ; resid.=  6.09828053315544E-05
(PID.TID 0000.0001)  cg2d: iter=    47 ; resid.=  5.16359211204043E-05
(PID.TID 0000.0001)  cg2d: iter=    48 ; resid.=  4.07041667261409E-05
(PID.TID 0000.0001)  cg2d: iter=    49 ; resid.=  3.18927505122529E-05
(PID.TID 0000.0001)  cg2d: iter=    50 ; resid.=  2.75411074107318E-05
(PID.TID 0000.0001)  cg2d: iter=    51 ; resid.=  2.63163156316698E-05
(PID.TID 0000.0001)  cg2d: iter=    52 ; resid.=  2.32134989501076E-05
(PID.TID 0000.0001)  cg2d: iter=    53 ; resid.=  2.03794265814865E-05
(PID.TID 0000.0001)  cg2d: iter=    54 ; resid.=  1.72639543436237E-05
(PID.TID 0000.0001)  cg2d: iter=    55 ; resid.=  1.33329992105834E-05
(PID.TID 0000.0001)  cg2d: iter=    56 ; resid.=  1.08726629054882E-05
(PID.TID 0000.0001)  cg2d: iter=    57 ; resid.=  8.63645394933968E-06
(PID.TID 0000.0001)  cg2d: iter=    58 ; resid.=  6.81432851396841E-06
(PID.TID 0000.0001)  cg2d: iter=    59 ; resid.=  5.51751532425747E-06
(PID.TID 0000.0001)  cg2d: iter=    60 ; resid.=  4.48005420566982E-06
(PID.TID 0000.0001)  cg2d: iter=    61 ; resid.=  3.84156223598024E-06
(PID.TID 0000.0001)  cg2d: iter=    62 ; resid.=  3.35587668434947E-06
(PID.TID 0000.0001)  cg2d: iter=    63 ; resid.=  2.70778997886088E-06
(PID.TID 0000.0001)  cg2d: iter=    64 ; resid.=  2.23690597989957E-06
(PID.TID 0000.0001)  cg2d: iter=    65 ; resid.=  1.67117990501935E-06
(PID.TID 0000.0001)  cg2d: iter=    66 ; resid.=  1.39039179233345E-06
(PID.TID 0000.0001)  cg2d: iter=    67 ; resid.=  1.16075517159278E-06
(PID.TID 0000.0001)  cg2d: iter=    68 ; resid.=  1.07003407538679E-06
(PID.TID 0000.0001)  cg2d: iter=    69 ; resid.=  8.68132046383382E-07
(PID.TID 0000.0001)  cg2d: iter=    70 ; resid.=  7.07610086584577E-07
(PID.TID 0000.0001)  cg2d: iter=    71 ; resid.=  5.95116046601700E-07
(PID.TID 0000.0001)  cg2d: iter=    72 ; resid.=  5.37893570818302E-07
(PID.TID 0000.0001)  cg2d: iter=    73 ; resid.=  4.96472704841835E-07
(PID.TID 0000.0001)  cg2d: iter=    74 ; resid.=  4.28829434808627E-07
(PID.TID 0000.0001)  cg2d: iter=    75 ; resid.=  3.35355041384339E-07
(PID.TID 0000.0001)  cg2d: iter=    76 ; resid.=  2.78478628155416E-07
(PID.TID 0000.0001)  cg2d: iter=    77 ; resid.=  2.07670449492829E-07
(PID.TID 0000.0001)  cg2d: iter=    78 ; resid.=  1.46929732596466E-07
(PID.TID 0000.0001)  cg2d: iter=    79 ; resid.=  1.17244673919077E-07
(PID.TID 0000.0001)  cg2d: iter=    80 ; resid.=  8.35963639786547E-08
(PID.TID 0000.0001)  cg2d: iter=    81 ; resid.=  6.11266251318414E-08
(PID.TID 0000.0001)  cg2d: iter=    82 ; resid.=  4.81112597618354E-08
(PID.TID 0000.0001)  cg2d: iter=    83 ; resid.=  3.81689802595695E-08
(PID.TID 0000.0001)  cg2d: iter=    84 ; resid.=  2.89222175769999E-08
(PID.TID 0000.0001)  cg2d: iter=    85 ; resid.=  2.19712307634394E-08
(PID.TID 0000.0001)  cg2d: iter=    86 ; resid.=  1.65084567096915E-08
(PID.TID 0000.0001)  cg2d: iter=    87 ; resid.=  1.30526841298445E-08
(PID.TID 0000.0001)  cg2d: iter=    88 ; resid.=  1.01883464241361E-08
(PID.TID 0000.0001)  cg2d: iter=    89 ; resid.=  8.41446926546919E-09
(PID.TID 0000.0001)  cg2d: iter=    90 ; resid.=  7.27853597521162E-09
(PID.TID 0000.0001)  cg2d: iter=    91 ; resid.=  6.00577035611456E-09
(PID.TID 0000.0001)  cg2d: iter=    92 ; resid.=  4.66323156464274E-09
(PID.TID 0000.0001)  cg2d: iter=    93 ; resid.=  3.96015700445128E-09
(PID.TID 0000.0001)  cg2d: iter=    94 ; resid.=  3.25650553585928E-09
(PID.TID 0000.0001)  cg2d: iter=    95 ; resid.=  2.73872188695851E-09
(PID.TID 0000.0001)  cg2d: iter=    96 ; resid.=  2.03280248558130E-09
(PID.TID 0000.0001)  cg2d: iter=    97 ; resid.=  1.56102090217381E-09
(PID.TID 0000.0001)  cg2d: iter=    98 ; resid.=  1.18680109300589E-09
(PID.TID 0000.0001)  cg2d: iter=    99 ; resid.=  1.01200241329456E-09
(PID.TID 0000.0001)  cg2d: iter=   100 ; resid.=  8.73697143451240E-10
(PID.TID 0000.0001)  cg2d: iter=   101 ; resid.=  7.66945645796242E-10
(PID.TID 0000.0001)  cg2d: iter=   102 ; resid.=  6.40579693307378E-10
(PID.TID 0000.0001)  cg2d: iter=   103 ; resid.=  4.81510078114553E-10
(PID.TID 0000.0001)  cg2d: iter=   104 ; resid.=  3.91517609659600E-10
(PID.TID 0000.0001)  cg2d: iter=   105 ; resid.=  3.06380989003085E-10
(PID.TID 0000.0001)  cg2d: iter=   106 ; resid.=  2.45563039060244E-10
(PID.TID 0000.0001)  cg2d: iter=   107 ; resid.=  1.82470960967808E-10
(PID.TID 0000.0001)  cg2d: iter=   108 ; resid.=  1.28461706002130E-10
(PID.TID 0000.0001)  cg2d: iter=   109 ; resid.=  9.12265143494214E-11
(PID.TID 0000.0001)  cg2d: iter=   110 ; resid.=  6.53306507261689E-11
(PID.TID 0000.0001)  cg2d: iter=   111 ; resid.=  5.04750572659665E-11
(PID.TID 0000.0001)  cg2d: iter=   112 ; resid.=  4.21121535755224E-11
(PID.TID 0000.0001)  cg2d: iter=   113 ; resid.=  3.17530875002962E-11
(PID.TID 0000.0001)  cg2d: iter=   114 ; resid.=  2.53374195188084E-11
(PID.TID 0000.0001)  cg2d: iter=   115 ; resid.=  2.04170392316749E-11
(PID.TID 0000.0001)  cg2d: iter=   116 ; resid.=  1.52800743649787E-11
(PID.TID 0000.0001)  cg2d: iter=   117 ; resid.=  1.20957489960128E-11
(PID.TID 0000.0001)  cg2d: iter=   118 ; resid.=  9.67121187622664E-12
(PID.TID 0000.0001)  cg2d: iter=   119 ; resid.=  7.27725696325987E-12
(PID.TID 0000.0001)  cg2d: iter=   120 ; resid.=  5.14048760886686E-12
(PID.TID 0000.0001)  cg2d: iter=   121 ; resid.=  3.80162418922162E-12
(PID.TID 0000.0001)  cg2d: iter=   122 ; resid.=  2.61010813729508E-12
(PID.TID 0000.0001)  cg2d: iter=   123 ; resid.=  1.79749634697235E-12
(PID.TID 0000.0001)  cg2d: iter=   124 ; resid.=  1.27181336804191E-12
(PID.TID 0000.0001)  cg2d: iter=   125 ; resid.=  9.88545930543032E-13
(PID.TID 0000.0001)  cg2d: iter=   126 ; resid.=  8.17457440734293E-13
(PID.TID 0000.0001)  cg2d: iter=   127 ; resid.=  5.55786661375310E-13
(PID.TID 0000.0001)  cg2d: iter=   128 ; resid.=  4.17238208872032E-13
(PID.TID 0000.0001)  cg2d: iter=   129 ; resid.=  3.11959866088574E-13
(PID.TID 0000.0001)  cg2d: iter=   130 ; resid.=  2.43902528563138E-13
(PID.TID 0000.0001)  cg2d: iter=   131 ; resid.=  1.90359335808796E-13
(PID.TID 0000.0001)  cg2d: iter=   132 ; resid.=  1.52905400101253E-13
(PID.TID 0000.0001)  cg2d: iter=   133 ; resid.=  1.18020531092342E-13
(PID.TID 0000.0001)  cg2d: iter=   134 ; resid.=  1.00701271150686E-13
(PID.TID 0000.0001)  cg2d: iter=   135 ; resid.=  8.34162535207781E-14
DEBUG_STATS_RL:    cg2d_x (SOLVE_FOR_PRESSURE)  min= -1.68427723584227E+01
DEBUG_STATS_RL:    cg2d_x (SOLVE_FOR_PRESSURE)  max=  8.51720498446915E+00
DEBUG_STATS_RL:    cg2d_x (SOLVE_FOR_PRESSURE) mean= -1.60495739816884E+00
DEBUG_STATS_RL:    cg2d_x (SOLVE_FOR_PRESSURE) S.D.=  6.37121187697417E+00
(PID.TID 0000.0001)      cg2d_init_res =   4.56336187092394E-01
(PID.TID 0000.0001)      cg2d_iters(min,last) =      -1     135
(PID.TID 0000.0001)      cg2d_last_res =   8.34162535207781E-14
(PID.TID 0000.0001) // =======================================================
(PID.TID 0000.0001) // Begin MONITOR dynamic field statistics
(PID.TID 0000.0001) // =======================================================
(PID.TID 0000.0001) %MON time_tsnumber                =                    34
(PID.TID 0000.0001) %MON time_secondsf                =   2.9376000000000E+06
(PID.TID 0000.0001) %MON dynstat_eta_max              =   8.6821661411506E-01
(PID.TID 0000.0001) %MON dynstat_eta_min              =  -1.7168983036108E+00
(PID.TID 0000.0001) %MON dynstat_eta_mean             =  -2.5314097347134E-03
(PID.TID 0000.0001) %MON dynstat_eta_sd               =   5.6812069868778E-01
(PID.TID 0000.0001) %MON dynstat_eta_del2             =   2.1638028283802E-03
(PID.TID 0000.0001) %MON dynstat_uvel_max             =   1.0782477300798E-01
(PID.TID 0000.0001) %MON dynstat_uvel_min             =  -1.7109708067721E-01
(PID.TID 0000.0001) %MON dynstat_uvel_mean            =   1.8897734044673E-03
(PID.TID 0000.0001) %MON dynstat_uvel_sd              =   1.3583986331503E-02
(PID.TID 0000.0001) %MON dynstat_uvel_del2            =   7.8914486778949E-05
(PID.TID 0000.0001) %MON dynstat_vvel_max             =   1.1541173591064E-01
(PID.TID 0000.0001) %MON dynstat_vvel_min             =  -1.0659010357035E-01
(PID.TID 0000.0001) %MON dynstat_vvel_mean            =  -9.3563006435385E-05
(PID.TID 0000.0001) %MON dynstat_vvel_sd              =   8.9306207282891E-03
(PID.TID 0000.0001) %MON dynstat_vvel_del2            =   7.8199661485312E-05
(PID.TID 0000.0001) %MON dynstat_wvel_max             =   9.3470990447835E-05
(PID.TID 0000.0001) %MON dynstat_wvel_min             =  -1.1001771963972E-04
(PID.TID 0000.0001) %MON dynstat_wvel_mean            =  -2.4412053736205E-22
(PID.TID 0000.0001) %MON dynstat_wvel_sd              =   1.4621116015608E-05
(PID.TID 0000.0001) %MON dynstat_wvel_del2            =   1.7039695065867E-07
(PID.TID 0000.0001) %MON dynstat_theta_max            =   3.0056621199070E+01
(PID.TID 0000.0001) %MON dynstat_theta_min            =  -2.0050129244932E+00
(PID.TID 0000.0001) %MON dynstat_theta_mean           =   3.6314269009192E+00
(PID.TID 0000.0001) %MON dynstat_theta_sd             =   4.4180307266008E+00
(PID.TID 0000.0001) %MON dynstat_theta_del2           =   4.8050580217930E-03
(PID.TID 0000.0001) %MON dynstat_salt_max             =   3.7464195175152E+01
(PID.TID 0000.0001) %MON dynstat_salt_min             =   2.9830800297460E+01
(PID.TID 0000.0001) %MON dynstat_salt_mean            =   3.4727980895662E+01
(PID.TID 0000.0001) %MON dynstat_salt_sd              =   2.9627078135816E-01
(PID.TID 0000.0001) %MON dynstat_salt_del2            =   9.9174882157942E-04
(PID.TID 0000.0001) %MON dynstat_sst_max              =   3.0056621199070E+01
(PID.TID 0000.0001) %MON dynstat_sst_min              =  -2.0050129244932E+00
(PID.TID 0000.0001) %MON dynstat_sst_mean             =   1.8780246850326E+01
(PID.TID 0000.0001) %MON dynstat_sst_sd               =   9.0382257896951E+00
(PID.TID 0000.0001) %MON dynstat_sst_del2             =   2.6753290260192E-02
(PID.TID 0000.0001) %MON dynstat_sss_max              =   3.7442092041747E+01
(PID.TID 0000.0001) %MON dynstat_sss_min              =   2.9830800297460E+01
(PID.TID 0000.0001) %MON dynstat_sss_mean             =   3.4854867706013E+01
(PID.TID 0000.0001) %MON dynstat_sss_sd               =   9.7597511116821E-01
(PID.TID 0000.0001) %MON dynstat_sss_del2             =   7.8579158318788E-03
(PID.TID 0000.0001) %MON forcing_qnet_max             =   3.8187005615234E+02
(PID.TID 0000.0001) %MON forcing_qnet_min             =  -1.7570820007324E+02
(PID.TID 0000.0001) %MON forcing_qnet_mean            =  -1.4984160987784E+01
(PID.TID 0000.0001) %MON forcing_qnet_sd              =   9.1092630456928E+01
(PID.TID 0000.0001) %MON forcing_qnet_del2            =   9.6613871099960E-01
(PID.TID 0000.0001) %MON forcing_qsw_max              =   0.0000000000000E+00
(PID.TID 0000.0001) %MON forcing_qsw_min              =   0.0000000000000E+00
(PID.TID 0000.0001) %MON forcing_qsw_mean             =   0.0000000000000E+00
(PID.TID 0000.0001) %MON forcing_qsw_sd               =   0.0000000000000E+00
(PID.TID 0000.0001) %MON forcing_qsw_del2             =   0.0000000000000E+00
(PID.TID 0000.0001) %MON forcing_empmr_max            =   7.6520623792931E-05
(PID.TID 0000.0001) %MON forcing_empmr_min            =  -7.7589552915924E-05
(PID.TID 0000.0001) %MON forcing_empmr_mean           =   9.3522021278988E-07
(PID.TID 0000.0001) %MON forcing_empmr_sd             =   2.8112018032576E-05
(PID.TID 0000.0001) %MON forcing_empmr_del2           =   3.5413910341625E-07
(PID.TID 0000.0001) %MON forcing_fu_max               =   2.8798962831497E-01
(PID.TID 0000.0001) %MON forcing_fu_min               =  -1.9581326544285E-01
(PID.TID 0000.0001) %MON forcing_fu_mean              =   1.6979139031008E-02
(PID.TID 0000.0001) %MON forcing_fu_sd                =   9.0367493904055E-02
(PID.TID 0000.0001) %MON forcing_fu_del2              =   6.7397847691000E-04
(PID.TID 0000.0001) %MON forcing_fv_max               =   1.8591085970402E-01
(PID.TID 0000.0001) %MON forcing_fv_min               =  -1.6161646842957E-01
(PID.TID 0000.0001) %MON forcing_fv_mean              =  -6.4335940603783E-03
(PID.TID 0000.0001) %MON forcing_fv_sd                =   4.4654100071951E-02
(PID.TID 0000.0001) %MON forcing_fv_del2              =   4.7289247100782E-04
(PID.TID 0000.0001) %MON trAdv_CFL_u_max              =   3.5170006359070E-02
(PID.TID 0000.0001) %MON trAdv_CFL_v_max              =   2.2901362361422E-02
(PID.TID 0000.0001) %MON trAdv_CFL_w_max              =   4.4978104597889E-02
(PID.TID 0000.0001) %MON advcfl_uvel_max              =   3.5639928038847E-02
(PID.TID 0000.0001) %MON advcfl_vvel_max              =   2.2422649305729E-02
(PID.TID 0000.0001) %MON advcfl_wvel_max              =   4.0648993105089E-02
(PID.TID 0000.0001) %MON advcfl_W_hf_max              =   4.7907741873854E-02
(PID.TID 0000.0001) %MON pe_b_mean                    =   4.1301996679699E-04
(PID.TID 0000.0001) %MON ke_max                       =   1.5315184981411E-02
(PID.TID 0000.0001) %MON ke_mean                      =   1.2126471541014E-04
(PID.TID 0000.0001) %MON ke_vol                       =   1.3226782436723E+18
(PID.TID 0000.0001) %MON vort_r_min                   =  -3.6173988972648E-07
(PID.TID 0000.0001) %MON vort_r_max                   =   4.3802110048876E-07
(PID.TID 0000.0001) %MON vort_a_mean                  =  -2.5274807372114E-05
(PID.TID 0000.0001) %MON vort_a_sd                    =   7.3604588443613E-05
(PID.TID 0000.0001) %MON vort_p_mean                  =  -3.1845655767549E-05
(PID.TID 0000.0001) %MON vort_p_sd                    =   1.3162600304265E-04
(PID.TID 0000.0001) %MON surfExpan_theta_mean         =   4.1708680328649E-07
(PID.TID 0000.0001) %MON surfExpan_salt_mean          =  -1.0395238136322E-07
(PID.TID 0000.0001) // =======================================================
(PID.TID 0000.0001) // End MONITOR dynamic field statistics
(PID.TID 0000.0001) // =======================================================
 EXTERNAL_FIELDS_LOAD,        34 : iP,iLd,i0,i1=    1    2    1    2 ; Wght=  0.3666666667  0.6333333333
 EXTERNAL_FIELDS_LOAD: (fu0,1),fu,fv= -3.5633E-02 -1.4435E-02 -2.2207E-02 -3.2163E-02
 EXTERNAL_FIELDS_LOAD: SST,SSS,Q,E-P=  1.4580E-02  3.4529E+01  2.4975E+02  9.5723E-06
DEBUG_STATS_RL:          Uvel (THERMODYNAMICS)  min= -1.71097080677214E-01
DEBUG_STATS_RL:          Uvel (THERMODYNAMICS)  max=  1.07824773007984E-01
DEBUG_STATS_RL:          Uvel (THERMODYNAMICS) mean=  2.88595944270140E-03
DEBUG_STATS_RL:          Uvel (THERMODYNAMICS) S.D.=  2.07170546727275E-02
DEBUG_STATS_RL:          Vvel (THERMODYNAMICS)  min= -1.06590103570347E-01
DEBUG_STATS_RL:          Vvel (THERMODYNAMICS)  max=  1.15411735910640E-01
DEBUG_STATS_RL:          Vvel (THERMODYNAMICS) mean= -2.43493810397523E-04
DEBUG_STATS_RL:          Vvel (THERMODYNAMICS) S.D.=  1.33703603793732E-02
DEBUG_STATS_RL:          Wvel (THERMODYNAMICS)  min= -1.10017719639720E-04
DEBUG_STATS_RL:          Wvel (THERMODYNAMICS)  max=  9.34709904478348E-05
DEBUG_STATS_RL:          Wvel (THERMODYNAMICS) mean= -2.98800939377937E-07
DEBUG_STATS_RL:          Wvel (THERMODYNAMICS) S.D.=  1.32465624634438E-05
DEBUG_STATS_RL:         Theta (THERMODYNAMICS)  min= -2.00427741030168E+00
DEBUG_STATS_RL:         Theta (THERMODYNAMICS)  max=  3.00784216818502E+01
DEBUG_STATS_RL:         Theta (THERMODYNAMICS) mean=  3.22092072011958E+00
DEBUG_STATS_RL:         Theta (THERMODYNAMICS) S.D.=  5.86043554768716E+00
DEBUG_STATS_RL:          Salt (THERMODYNAMICS)  min=  9.99999999999998E-03
DEBUG_STATS_RL:          Salt (THERMODYNAMICS)  max=  3.74646563396959E+01
DEBUG_STATS_RL:          Salt (THERMODYNAMICS) mean=  1.88548399990166E+01
DEBUG_STATS_RL:          Salt (THERMODYNAMICS) S.D.=  1.73003570506739E+01
DEBUG_STATS_RL:         GtNm1 (THERMODYNAMICS)  min= -3.46266435469464E-06
DEBUG_STATS_RL:         GtNm1 (THERMODYNAMICS)  max=  2.34331010320263E-06
DEBUG_STATS_RL:         GtNm1 (THERMODYNAMICS) mean=  1.02573423528777E-08
DEBUG_STATS_RL:         GtNm1 (THERMODYNAMICS) S.D.=  2.05304819138564E-07
DEBUG_STATS_RL:         GsNm1 (THERMODYNAMICS)  min= -4.83766444037471E-07
DEBUG_STATS_RL:         GsNm1 (THERMODYNAMICS)  max=  3.16087367915801E-07
DEBUG_STATS_RL:         GsNm1 (THERMODYNAMICS) mean= -3.67189701370143E-10
DEBUG_STATS_RL:         GsNm1 (THERMODYNAMICS) S.D.=  1.77208119528107E-08
DEBUG_STATS_RL:                EtaN (DYNAMICS)  min= -1.71689830361081E+00
DEBUG_STATS_RL:                EtaN (DYNAMICS)  max=  8.68216614115061E-01
DEBUG_STATS_RL:                EtaN (DYNAMICS) mean= -1.63604219996825E-01
DEBUG_STATS_RL:                EtaN (DYNAMICS) S.D.=  6.49460945665054E-01
DEBUG_STATS_RL:                Uvel (DYNAMICS)  min= -1.71097080677214E-01
DEBUG_STATS_RL:                Uvel (DYNAMICS)  max=  1.07824773007984E-01
DEBUG_STATS_RL:                Uvel (DYNAMICS) mean=  2.88595944270140E-03
DEBUG_STATS_RL:                Uvel (DYNAMICS) S.D.=  2.07170546727275E-02
DEBUG_STATS_RL:                Vvel (DYNAMICS)  min= -1.06590103570347E-01
DEBUG_STATS_RL:                Vvel (DYNAMICS)  max=  1.15411735910640E-01
DEBUG_STATS_RL:                Vvel (DYNAMICS) mean= -2.43493810397523E-04
DEBUG_STATS_RL:                Vvel (DYNAMICS) S.D.=  1.33703603793732E-02
DEBUG_STATS_RL:                Wvel (DYNAMICS)  min= -1.10017719639720E-04
DEBUG_STATS_RL:                Wvel (DYNAMICS)  max=  9.34709904478348E-05
DEBUG_STATS_RL:                Wvel (DYNAMICS) mean= -2.98800939377937E-07
DEBUG_STATS_RL:                Wvel (DYNAMICS) S.D.=  1.32465624634438E-05
DEBUG_STATS_RL:               Theta (DYNAMICS)  min= -2.00427741030168E+00
DEBUG_STATS_RL:               Theta (DYNAMICS)  max=  3.00784216818502E+01
DEBUG_STATS_RL:               Theta (DYNAMICS) mean=  3.22092072011958E+00
DEBUG_STATS_RL:               Theta (DYNAMICS) S.D.=  5.86043554768716E+00
DEBUG_STATS_RL:                Salt (DYNAMICS)  min=  9.99999999999998E-03
DEBUG_STATS_RL:                Salt (DYNAMICS)  max=  3.74646563396959E+01
DEBUG_STATS_RL:                Salt (DYNAMICS) mean=  1.88548399990166E+01
DEBUG_STATS_RL:                Salt (DYNAMICS) S.D.=  1.73003570506739E+01
DEBUG_STATS_RL:                  Gu (DYNAMICS)  min= -1.70635564177142E-01
DEBUG_STATS_RL:                  Gu (DYNAMICS)  max=  1.12997043462327E-01
DEBUG_STATS_RL:                  Gu (DYNAMICS) mean=  2.87791915442342E-03
DEBUG_STATS_RL:                  Gu (DYNAMICS) S.D.=  2.15927775672547E-02
DEBUG_STATS_RL:                  Gv (DYNAMICS)  min= -1.05595104882604E-01
DEBUG_STATS_RL:                  Gv (DYNAMICS)  max=  1.06858180806604E-01
DEBUG_STATS_RL:                  Gv (DYNAMICS) mean=  2.01429523585935E-03
DEBUG_STATS_RL:                  Gv (DYNAMICS) S.D.=  1.36901976127256E-02
DEBUG_STATS_RL:               GuNm1 (DYNAMICS)  min= -8.22292579742729E-06
DEBUG_STATS_RL:               GuNm1 (DYNAMICS)  max=  7.92404833059975E-06
DEBUG_STATS_RL:               GuNm1 (DYNAMICS) mean= -1.99215270829919E-08
DEBUG_STATS_RL:               GuNm1 (DYNAMICS) S.D.=  1.18742789789093E-06
DEBUG_STATS_RL:               GvNm1 (DYNAMICS)  min= -1.07296500283959E-05
DEBUG_STATS_RL:               GvNm1 (DYNAMICS)  max=  1.64613949709099E-05
DEBUG_STATS_RL:               GvNm1 (DYNAMICS) mean=  7.55499855130446E-07
DEBUG_STATS_RL:               GvNm1 (DYNAMICS) S.D.=  2.63847938172010E-06
DEBUG_STATS_RL:               GtNm1 (DYNAMICS)  min= -3.46266435469464E-06
DEBUG_STATS_RL:               GtNm1 (DYNAMICS)  max=  2.34331010320263E-06
DEBUG_STATS_RL:               GtNm1 (DYNAMICS) mean=  1.02573423528777E-08
DEBUG_STATS_RL:               GtNm1 (DYNAMICS) S.D.=  2.05304819138564E-07
DEBUG_STATS_RL:               GsNm1 (DYNAMICS)  min= -4.83766444037471E-07
DEBUG_STATS_RL:               GsNm1 (DYNAMICS)  max=  3.16087367915801E-07
DEBUG_STATS_RL:               GsNm1 (DYNAMICS) mean= -3.67189701370143E-10
DEBUG_STATS_RL:               GsNm1 (DYNAMICS) S.D.=  1.77208119528107E-08
DEBUG_STATS_RL:    cg2d_b (SOLVE_FOR_PRESSURE)  min= -1.93965977991131E+04
DEBUG_STATS_RL:    cg2d_b (SOLVE_FOR_PRESSURE)  max=  1.69438944690310E+04
DEBUG_STATS_RL:    cg2d_b (SOLVE_FOR_PRESSURE) mean=  2.50105163115208E+00
DEBUG_STATS_RL:    cg2d_b (SOLVE_FOR_PRESSURE) S.D.=  3.76770904487210E+03
 cg2d: Sum(rhs),rhsMax =   2.98502582055018E-01  1.27402047639542E+00
(PID.TID 0000.0001)  cg2d: iter=     1 ; resid.=  1.71816430555092E-01
(PID.TID 0000.0001)  cg2d: iter=     2 ; resid.=  1.50080500049507E-01
(PID.TID 0000.0001)  cg2d: iter=     3 ; resid.=  1.45795618528386E-01
(PID.TID 0000.0001)  cg2d: iter=     4 ; resid.=  1.31311215469716E-01
(PID.TID 0000.0001)  cg2d: iter=     5 ; resid.=  1.29318202194337E-01
(PID.TID 0000.0001)  cg2d: iter=     6 ; resid.=  1.10110549576881E-01
(PID.TID 0000.0001)  cg2d: iter=     7 ; resid.=  9.55513397438500E-02
(PID.TID 0000.0001)  cg2d: iter=     8 ; resid.=  7.03395156440578E-02
(PID.TID 0000.0001)  cg2d: iter=     9 ; resid.=  5.23019315341485E-02
(PID.TID 0000.0001)  cg2d: iter=    10 ; resid.=  4.10066012911368E-02
(PID.TID 0000.0001)  cg2d: iter=    11 ; resid.=  3.66370839879647E-02
(PID.TID 0000.0001)  cg2d: iter=    12 ; resid.=  3.09655553324329E-02
(PID.TID 0000.0001)  cg2d: iter=    13 ; resid.=  2.53235680481843E-02
(PID.TID 0000.0001)  cg2d: iter=    14 ; resid.=  2.17909994570606E-02
(PID.TID 0000.0001)  cg2d: iter=    15 ; resid.=  1.73205264541690E-02
(PID.TID 0000.0001)  cg2d: iter=    16 ; resid.=  1.50207831084036E-02
(PID.TID 0000.0001)  cg2d: iter=    17 ; resid.=  1.30422278633906E-02
(PID.TID 0000.0001)  cg2d: iter=    18 ; resid.=  1.14619745154425E-02
(PID.TID 0000.0001)  cg2d: iter=    19 ; resid.=  8.88740120710021E-03
(PID.TID 0000.0001)  cg2d: iter=    20 ; resid.=  6.79721832296466E-03
(PID.TID 0000.0001)  cg2d: iter=    21 ; resid.=  5.57135468406217E-03
(PID.TID 0000.0001)  cg2d: iter=    22 ; resid.=  4.79012197489506E-03
(PID.TID 0000.0001)  cg2d: iter=    23 ; resid.=  4.30635451334472E-03
(PID.TID 0000.0001)  cg2d: iter=    24 ; resid.=  4.07291100367936E-03
(PID.TID 0000.0001)  cg2d: iter=    25 ; resid.=  3.22476169189679E-03
(PID.TID 0000.0001)  cg2d: iter=    26 ; resid.=  2.55550657747741E-03
(PID.TID 0000.0001)  cg2d: iter=    27 ; resid.=  1.96728942926881E-03
(PID.TID 0000.0001)  cg2d: iter=    28 ; resid.=  1.53900979198205E-03
(PID.TID 0000.0001)  cg2d: iter=    29 ; resid.=  1.15825503411853E-03
(PID.TID 0000.0001)  cg2d: iter=    30 ; resid.=  9.42151621484172E-04
(PID.TID 0000.0001)  cg2d: iter=    31 ; resid.=  7.88588303630885E-04
(PID.TID 0000.0001)  cg2d: iter=    32 ; resid.=  6.53195581639601E-04
(PID.TID 0000.0001)  cg2d: iter=    33 ; resid.=  5.74160833242485E-04
(PID.TID 0000.0001)  cg2d: iter=    34 ; resid.=  5.00948634083057E-04
(PID.TID 0000.0001)  cg2d: iter=    35 ; resid.=  4.31027822504352E-04
(PID.TID 0000.0001)  cg2d: iter=    36 ; resid.=  3.67577289157752E-04
(PID.TID 0000.0001)  cg2d: iter=    37 ; resid.=  3.18261637910488E-04
(PID.TID 0000.0001)  cg2d: iter=    38 ; resid.=  2.85533680276682E-04
(PID.TID 0000.0001)  cg2d: iter=    39 ; resid.=  2.46415909210791E-04
(PID.TID 0000.0001)  cg2d: iter=    40 ; resid.=  1.95758994587544E-04
(PID.TID 0000.0001)  cg2d: iter=    41 ; resid.=  1.62356138918326E-04
(PID.TID 0000.0001)  cg2d: iter=    42 ; resid.=  1.41287975388934E-04
(PID.TID 0000.0001)  cg2d: iter=    43 ; resid.=  1.21376533871869E-04
(PID.TID 0000.0001)  cg2d: iter=    44 ; resid.=  9.99585232473716E-05
(PID.TID 0000.0001)  cg2d: iter=    45 ; resid.=  7.70796875270515E-05
(PID.TID 0000.0001)  cg2d: iter=    46 ; resid.=  6.06184641594723E-05
(PID.TID 0000.0001)  cg2d: iter=    47 ; resid.=  5.13163904487060E-05
(PID.TID 0000.0001)  cg2d: iter=    48 ; resid.=  4.07859525776929E-05
(PID.TID 0000.0001)  cg2d: iter=    49 ; resid.=  3.23184735737633E-05
(PID.TID 0000.0001)  cg2d: iter=    50 ; resid.=  2.85405412236409E-05
(PID.TID 0000.0001)  cg2d: iter=    51 ; resid.=  2.72445192137462E-05
(PID.TID 0000.0001)  cg2d: iter=    52 ; resid.=  2.37989151603080E-05
(PID.TID 0000.0001)  cg2d: iter=    53 ; resid.=  2.04373521539970E-05
(PID.TID 0000.0001)  cg2d: iter=    54 ; resid.=  1.70418965150650E-05
(PID.TID 0000.0001)  cg2d: iter=    55 ; resid.=  1.31799055281648E-05
(PID.TID 0000.0001)  cg2d: iter=    56 ; resid.=  1.05190497558910E-05
(PID.TID 0000.0001)  cg2d: iter=    57 ; resid.=  8.35724678533355E-06
(PID.TID 0000.0001)  cg2d: iter=    58 ; resid.=  6.69139474599750E-06
(PID.TID 0000.0001)  cg2d: iter=    59 ; resid.=  5.58107666474231E-06
(PID.TID 0000.0001)  cg2d: iter=    60 ; resid.=  4.59089130194503E-06
(PID.TID 0000.0001)  cg2d: iter=    61 ; resid.=  3.98281363320350E-06
(PID.TID 0000.0001)  cg2d: iter=    62 ; resid.=  3.46932454964221E-06
(PID.TID 0000.0001)  cg2d: iter=    63 ; resid.=  2.84523833763798E-06
(PID.TID 0000.0001)  cg2d: iter=    64 ; resid.=  2.31354940191417E-06
(PID.TID 0000.0001)  cg2d: iter=    65 ; resid.=  1.71976930287195E-06
(PID.TID 0000.0001)  cg2d: iter=    66 ; resid.=  1.45623408151199E-06
(PID.TID 0000.0001)  cg2d: iter=    67 ; resid.=  1.20916776946912E-06
(PID.TID 0000.0001)  cg2d: iter=    68 ; resid.=  1.10577309347414E-06
(PID.TID 0000.0001)  cg2d: iter=    69 ; resid.=  8.86733577260430E-07
(PID.TID 0000.0001)  cg2d: iter=    70 ; resid.=  7.14767330355963E-07
(PID.TID 0000.0001)  cg2d: iter=    71 ; resid.=  6.00360679981064E-07
(PID.TID 0000.0001)  cg2d: iter=    72 ; resid.=  5.41052681474492E-07
(PID.TID 0000.0001)  cg2d: iter=    73 ; resid.=  4.97078793856749E-07
(PID.TID 0000.0001)  cg2d: iter=    74 ; resid.=  4.24884063000204E-07
(PID.TID 0000.0001)  cg2d: iter=    75 ; resid.=  3.32204606312407E-07
(PID.TID 0000.0001)  cg2d: iter=    76 ; resid.=  2.72594488553105E-07
(PID.TID 0000.0001)  cg2d: iter=    77 ; resid.=  2.06665831072178E-07
(PID.TID 0000.0001)  cg2d: iter=    78 ; resid.=  1.49939833687089E-07
(PID.TID 0000.0001)  cg2d: iter=    79 ; resid.=  1.21253286854228E-07
(PID.TID 0000.0001)  cg2d: iter=    80 ; resid.=  8.79290853187794E-08
(PID.TID 0000.0001)  cg2d: iter=    81 ; resid.=  6.41631591333735E-08
(PID.TID 0000.0001)  cg2d: iter=    82 ; resid.=  5.05582286993639E-08
(PID.TID 0000.0001)  cg2d: iter=    83 ; resid.=  3.93441387888025E-08
(PID.TID 0000.0001)  cg2d: iter=    84 ; resid.=  2.92885698475278E-08
(PID.TID 0000.0001)  cg2d: iter=    85 ; resid.=  2.19437899029259E-08
(PID.TID 0000.0001)  cg2d: iter=    86 ; resid.=  1.63731879667398E-08
(PID.TID 0000.0001)  cg2d: iter=    87 ; resid.=  1.35574490761309E-08
(PID.TID 0000.0001)  cg2d: iter=    88 ; resid.=  1.09845465944258E-08
(PID.TID 0000.0001)  cg2d: iter=    89 ; resid.=  9.20426631203851E-09
(PID.TID 0000.0001)  cg2d: iter=    90 ; resid.=  7.78010334494712E-09
(PID.TID 0000.0001)  cg2d: iter=    91 ; resid.=  6.11871223294457E-09
(PID.TID 0000.0001)  cg2d: iter=    92 ; resid.=  4.60203376611418E-09
(PID.TID 0000.0001)  cg2d: iter=    93 ; resid.=  3.76966789306595E-09
(PID.TID 0000.0001)  cg2d: iter=    94 ; resid.=  3.04734655163945E-09
(PID.TID 0000.0001)  cg2d: iter=    95 ; resid.=  2.59397438271829E-09
(PID.TID 0000.0001)  cg2d: iter=    96 ; resid.=  1.98271157046546E-09
(PID.TID 0000.0001)  cg2d: iter=    97 ; resid.=  1.53870682971161E-09
(PID.TID 0000.0001)  cg2d: iter=    98 ; resid.=  1.17567721145615E-09
(PID.TID 0000.0001)  cg2d: iter=    99 ; resid.=  1.02408957879752E-09
(PID.TID 0000.0001)  cg2d: iter=   100 ; resid.=  8.86935552046187E-10
(PID.TID 0000.0001)  cg2d: iter=   101 ; resid.=  7.76046342024494E-10
(PID.TID 0000.0001)  cg2d: iter=   102 ; resid.=  6.41537052983063E-10
(PID.TID 0000.0001)  cg2d: iter=   103 ; resid.=  4.91727936409858E-10
(PID.TID 0000.0001)  cg2d: iter=   104 ; resid.=  4.00681854073240E-10
(PID.TID 0000.0001)  cg2d: iter=   105 ; resid.=  3.15865928986414E-10
(PID.TID 0000.0001)  cg2d: iter=   106 ; resid.=  2.58749329383042E-10
(PID.TID 0000.0001)  cg2d: iter=   107 ; resid.=  1.96795276490426E-10
(PID.TID 0000.0001)  cg2d: iter=   108 ; resid.=  1.41806427470706E-10
(PID.TID 0000.0001)  cg2d: iter=   109 ; resid.=  1.01440111149592E-10
(PID.TID 0000.0001)  cg2d: iter=   110 ; resid.=  7.36317658113482E-11
(PID.TID 0000.0001)  cg2d: iter=   111 ; resid.=  5.68305120049232E-11
(PID.TID 0000.0001)  cg2d: iter=   112 ; resid.=  4.49593720606830E-11
(PID.TID 0000.0001)  cg2d: iter=   113 ; resid.=  3.20597361289071E-11
(PID.TID 0000.0001)  cg2d: iter=   114 ; resid.=  2.41943989633432E-11
(PID.TID 0000.0001)  cg2d: iter=   115 ; resid.=  1.88137524533110E-11
(PID.TID 0000.0001)  cg2d: iter=   116 ; resid.=  1.39178915927327E-11
(PID.TID 0000.0001)  cg2d: iter=   117 ; resid.=  1.13726091844533E-11
(PID.TID 0000.0001)  cg2d: iter=   118 ; resid.=  9.60809188980713E-12
(PID.TID 0000.0001)  cg2d: iter=   119 ; resid.=  7.61644334106514E-12
(PID.TID 0000.0001)  cg2d: iter=   120 ; resid.=  5.52367045338455E-12
(PID.TID 0000.0001)  cg2d: iter=   121 ; resid.=  4.30312678636917E-12
(PID.TID 0000.0001)  cg2d: iter=   122 ; resid.=  3.13451514801659E-12
(PID.TID 0000.0001)  cg2d: iter=   123 ; resid.=  2.23486121948807E-12
(PID.TID 0000.0001)  cg2d: iter=   124 ; resid.=  1.58486751708653E-12
(PID.TID 0000.0001)  cg2d: iter=   125 ; resid.=  1.21182229594697E-12
(PID.TID 0000.0001)  cg2d: iter=   126 ; resid.=  9.57166833174192E-13
(PID.TID 0000.0001)  cg2d: iter=   127 ; resid.=  6.20942251956556E-13
(PID.TID 0000.0001)  cg2d: iter=   128 ; resid.=  4.41148928788386E-13
(PID.TID 0000.0001)  cg2d: iter=   129 ; resid.=  3.20862580982395E-13
(PID.TID 0000.0001)  cg2d: iter=   130 ; resid.=  2.44816489935089E-13
(PID.TID 0000.0001)  cg2d: iter=   131 ; resid.=  1.86802353181824E-13
(PID.TID 0000.0001)  cg2d: iter=   132 ; resid.=  1.48638684368824E-13
(PID.TID 0000.0001)  cg2d: iter=   133 ; resid.=  1.15850604332778E-13
(PID.TID 0000.0001)  cg2d: iter=   134 ; resid.=  9.75259228159681E-14
DEBUG_STATS_RL:    cg2d_x (SOLVE_FOR_PRESSURE)  min= -1.68620550885461E+01
DEBUG_STATS_RL:    cg2d_x (SOLVE_FOR_PRESSURE)  max=  8.59097606443292E+00
DEBUG_STATS_RL:    cg2d_x (SOLVE_FOR_PRESSURE) mean= -1.62392779142292E+00
DEBUG_STATS_RL:    cg2d_x (SOLVE_FOR_PRESSURE) S.D.=  6.44070355716456E+00
(PID.TID 0000.0001)      cg2d_init_res =   4.56740675407070E-01
(PID.TID 0000.0001)      cg2d_iters(min,last) =      -1     134
(PID.TID 0000.0001)      cg2d_last_res =   9.75259228159681E-14
(PID.TID 0000.0001) // =======================================================
(PID.TID 0000.0001) // Begin MONITOR dynamic field statistics
(PID.TID 0000.0001) // =======================================================
(PID.TID 0000.0001) %MON time_tsnumber                =                    35
(PID.TID 0000.0001) %MON time_secondsf                =   3.0240000000000E+06
(PID.TID 0000.0001) %MON dynstat_eta_max              =   8.7573660187895E-01
(PID.TID 0000.0001) %MON dynstat_eta_min              =  -1.7188639233993E+00
(PID.TID 0000.0001) %MON dynstat_eta_mean             =  -2.6095372569430E-03
(PID.TID 0000.0001) %MON dynstat_eta_sd               =   5.7660093487080E-01
(PID.TID 0000.0001) %MON dynstat_eta_del2             =   2.1671672855656E-03
(PID.TID 0000.0001) %MON dynstat_uvel_max             =   1.1733487592759E-01
(PID.TID 0000.0001) %MON dynstat_uvel_min             =  -1.6888584074562E-01
(PID.TID 0000.0001) %MON dynstat_uvel_mean            =   1.8650562338506E-03
(PID.TID 0000.0001) %MON dynstat_uvel_sd              =   1.3787025280936E-02
(PID.TID 0000.0001) %MON dynstat_uvel_del2            =   8.0031973285991E-05
(PID.TID 0000.0001) %MON dynstat_vvel_max             =   1.1365535877661E-01
(PID.TID 0000.0001) %MON dynstat_vvel_min             =  -1.0848337115164E-01
(PID.TID 0000.0001) %MON dynstat_vvel_mean            =  -9.2821154794118E-05
(PID.TID 0000.0001) %MON dynstat_vvel_sd              =   9.0376028840028E-03
(PID.TID 0000.0001) %MON dynstat_vvel_del2            =   7.9015827643074E-05
(PID.TID 0000.0001) %MON dynstat_wvel_max             =   9.0202802954403E-05
(PID.TID 0000.0001) %MON dynstat_wvel_min             =  -1.0921283832341E-04
(PID.TID 0000.0001) %MON dynstat_wvel_mean            =  -2.4608451138393E-22
(PID.TID 0000.0001) %MON dynstat_wvel_sd              =   1.4740364663889E-05
(PID.TID 0000.0001) %MON dynstat_wvel_del2            =   1.6865181553927E-07
(PID.TID 0000.0001) %MON dynstat_theta_max            =   3.0078421681850E+01
(PID.TID 0000.0001) %MON dynstat_theta_min            =  -2.0042774103017E+00
(PID.TID 0000.0001) %MON dynstat_theta_mean           =   3.6315001786838E+00
(PID.TID 0000.0001) %MON dynstat_theta_sd             =   4.4182006844662E+00
(PID.TID 0000.0001) %MON dynstat_theta_del2           =   4.7933483461753E-03
(PID.TID 0000.0001) %MON dynstat_salt_max             =   3.7464656339696E+01
(PID.TID 0000.0001) %MON dynstat_salt_min             =   2.9830214436654E+01
(PID.TID 0000.0001) %MON dynstat_salt_mean            =   3.4727984196294E+01
(PID.TID 0000.0001) %MON dynstat_salt_sd              =   2.9628419531787E-01
(PID.TID 0000.0001) %MON dynstat_salt_del2            =   9.9041014808856E-04
(PID.TID 0000.0001) %MON dynstat_sst_max              =   3.0078421681850E+01
(PID.TID 0000.0001) %MON dynstat_sst_min              =  -2.0042774103017E+00
(PID.TID 0000.0001) %MON dynstat_sst_mean             =   1.8790322386254E+01
(PID.TID 0000.0001) %MON dynstat_sst_sd               =   9.0338065468167E+00
(PID.TID 0000.0001) %MON dynstat_sst_del2             =   2.6779698728149E-02
(PID.TID 0000.0001) %MON dynstat_sss_max              =   3.7441872508911E+01
(PID.TID 0000.0001) %MON dynstat_sss_min              =   2.9830214436654E+01
(PID.TID 0000.0001) %MON dynstat_sss_mean             =   3.4854625091747E+01
(PID.TID 0000.0001) %MON dynstat_sss_sd               =   9.7611688588807E-01
(PID.TID 0000.0001) %MON dynstat_sss_del2             =   7.8560029600084E-03
(PID.TID 0000.0001) %MON forcing_qnet_max             =   3.7855096944173E+02
(PID.TID 0000.0001) %MON forcing_qnet_min             =  -1.7546868082682E+02
(PID.TID 0000.0001) %MON forcing_qnet_mean            =  -1.4899251820380E+01
(PID.TID 0000.0001) %MON forcing_qnet_sd              =   9.0096938655160E+01
(PID.TID 0000.0001) %MON forcing_qnet_del2            =   9.6402608526261E-01
(PID.TID 0000.0001) %MON forcing_qsw_max              =   0.0000000000000E+00
(PID.TID 0000.0001) %MON forcing_qsw_min              =   0.0000000000000E+00
(PID.TID 0000.0001) %MON forcing_qsw_mean             =   0.0000000000000E+00
(PID.TID 0000.0001) %MON forcing_qsw_sd               =   0.0000000000000E+00
(PID.TID 0000.0001) %MON forcing_qsw_del2             =   0.0000000000000E+00
(PID.TID 0000.0001) %MON forcing_empmr_max            =   7.6206534060930E-05
(PID.TID 0000.0001) %MON forcing_empmr_min            =  -7.7669197177480E-05
(PID.TID 0000.0001) %MON forcing_empmr_mean           =   9.3590261004984E-07
(PID.TID 0000.0001) %MON forcing_empmr_sd             =   2.8090956758980E-05
(PID.TID 0000.0001) %MON forcing_empmr_del2           =   3.5396239938418E-07
(PID.TID 0000.0001) %MON forcing_fu_max               =   2.8937678635120E-01
(PID.TID 0000.0001) %MON forcing_fu_min               =  -1.9747318923473E-01
(PID.TID 0000.0001) %MON forcing_fu_mean              =   1.7033439246477E-02
(PID.TID 0000.0001) %MON forcing_fu_sd                =   9.0494937497899E-02
(PID.TID 0000.0001) %MON forcing_fu_del2              =   6.7697458152225E-04
(PID.TID 0000.0001) %MON forcing_fv_max               =   1.8480933904648E-01
(PID.TID 0000.0001) %MON forcing_fv_min               =  -1.6478836735090E-01
(PID.TID 0000.0001) %MON forcing_fv_mean              =  -6.4988549670934E-03
(PID.TID 0000.0001) %MON forcing_fv_sd                =   4.4598978531363E-02
(PID.TID 0000.0001) %MON forcing_fv_del2              =   4.7620990539496E-04
(PID.TID 0000.0001) %MON trAdv_CFL_u_max              =   3.5647166763132E-02
(PID.TID 0000.0001) %MON trAdv_CFL_v_max              =   2.2608690017554E-02
(PID.TID 0000.0001) %MON trAdv_CFL_w_max              =   4.4934933113724E-02
(PID.TID 0000.0001) %MON advcfl_uvel_max              =   3.8783355789646E-02
(PID.TID 0000.0001) %MON advcfl_vvel_max              =   2.2081413397491E-02
(PID.TID 0000.0001) %MON advcfl_wvel_max              =   3.7795786877617E-02
(PID.TID 0000.0001) %MON advcfl_W_hf_max              =   4.4545034534334E-02
(PID.TID 0000.0001) %MON pe_b_mean                    =   4.2544240963957E-04
(PID.TID 0000.0001) %MON ke_max                       =   1.5350584098423E-02
(PID.TID 0000.0001) %MON ke_mean                      =   1.2461028684101E-04
(PID.TID 0000.0001) %MON ke_vol                       =   1.3226782436723E+18
(PID.TID 0000.0001) %MON vort_r_min                   =  -3.7817051169467E-07
(PID.TID 0000.0001) %MON vort_r_max                   =   4.4187368223480E-07
(PID.TID 0000.0001) %MON vort_a_mean                  =  -2.5274807290726E-05
(PID.TID 0000.0001) %MON vort_a_sd                    =   7.3604589457968E-05
(PID.TID 0000.0001) %MON vort_p_mean                  =  -3.1845655665002E-05
(PID.TID 0000.0001) %MON vort_p_sd                    =   1.3162576557662E-04
(PID.TID 0000.0001) %MON surfExpan_theta_mean         =   4.3324292482432E-07
(PID.TID 0000.0001) %MON surfExpan_salt_mean          =  -9.7821688860840E-08
(PID.TID 0000.0001) // =======================================================
(PID.TID 0000.0001) // End MONITOR dynamic field statistics
(PID.TID 0000.0001) // =======================================================
 EXTERNAL_FIELDS_LOAD,        35 : iP,iLd,i0,i1=    1    2    1    2 ; Wght=  0.3333333333  0.6666666667
 EXTERNAL_FIELDS_LOAD: (fu0,1),fu,fv= -3.5633E-02 -1.4435E-02 -2.1501E-02 -3.0843E-02
 EXTERNAL_FIELDS_LOAD: SST,SSS,Q,E-P= -3.5096E-02  3.4519E+01  2.4891E+02  9.4637E-06
DEBUG_STATS_RL:          Uvel (THERMODYNAMICS)  min= -1.68885840745621E-01
DEBUG_STATS_RL:          Uvel (THERMODYNAMICS)  max=  1.17334875927594E-01
DEBUG_STATS_RL:          Uvel (THERMODYNAMICS) mean=  2.96668668381655E-03
DEBUG_STATS_RL:          Uvel (THERMODYNAMICS) S.D.=  2.12431467782266E-02
DEBUG_STATS_RL:          Vvel (THERMODYNAMICS)  min= -1.08483371151640E-01
DEBUG_STATS_RL:          Vvel (THERMODYNAMICS)  max=  1.13655358776614E-01
DEBUG_STATS_RL:          Vvel (THERMODYNAMICS) mean= -3.13947966004293E-04
DEBUG_STATS_RL:          Vvel (THERMODYNAMICS) S.D.=  1.35236115408772E-02
DEBUG_STATS_RL:          Wvel (THERMODYNAMICS)  min= -1.09212838323405E-04
DEBUG_STATS_RL:          Wvel (THERMODYNAMICS)  max=  9.02028029544031E-05
DEBUG_STATS_RL:          Wvel (THERMODYNAMICS) mean= -3.39039347629241E-07
DEBUG_STATS_RL:          Wvel (THERMODYNAMICS) S.D.=  1.32925569245209E-05
DEBUG_STATS_RL:         Theta (THERMODYNAMICS)  min= -2.00348064453808E+00
DEBUG_STATS_RL:         Theta (THERMODYNAMICS)  max=  3.01010559898747E+01
DEBUG_STATS_RL:         Theta (THERMODYNAMICS) mean=  3.22145825858350E+00
DEBUG_STATS_RL:         Theta (THERMODYNAMICS) S.D.=  5.86096763952014E+00
DEBUG_STATS_RL:          Salt (THERMODYNAMICS)  min=  9.99999999999998E-03
DEBUG_STATS_RL:          Salt (THERMODYNAMICS)  max=  3.74650343561048E+01
DEBUG_STATS_RL:          Salt (THERMODYNAMICS) mean=  1.88548312714946E+01
DEBUG_STATS_RL:          Salt (THERMODYNAMICS) S.D.=  1.73003499009422E+01
DEBUG_STATS_RL:         GtNm1 (THERMODYNAMICS)  min= -2.91386520352655E-06
DEBUG_STATS_RL:         GtNm1 (THERMODYNAMICS)  max=  2.28652612053507E-06
DEBUG_STATS_RL:         GtNm1 (THERMODYNAMICS) mean=  1.12857000254667E-08
DEBUG_STATS_RL:         GtNm1 (THERMODYNAMICS) S.D.=  2.04499451204530E-07
DEBUG_STATS_RL:         GsNm1 (THERMODYNAMICS)  min= -4.65717166922020E-07
DEBUG_STATS_RL:         GsNm1 (THERMODYNAMICS)  max=  3.07438313954676E-07
DEBUG_STATS_RL:         GsNm1 (THERMODYNAMICS) mean= -2.77431948035068E-10
DEBUG_STATS_RL:         GsNm1 (THERMODYNAMICS) S.D.=  1.76905886498187E-08
DEBUG_STATS_RL:                EtaN (DYNAMICS)  min= -1.71886392339926E+00
DEBUG_STATS_RL:                EtaN (DYNAMICS)  max=  8.75736601878948E-01
DEBUG_STATS_RL:                EtaN (DYNAMICS) mean= -1.65538001164417E-01
DEBUG_STATS_RL:                EtaN (DYNAMICS) S.D.=  6.56544705113612E-01
DEBUG_STATS_RL:                Uvel (DYNAMICS)  min= -1.68885840745621E-01
DEBUG_STATS_RL:                Uvel (DYNAMICS)  max=  1.17334875927594E-01
DEBUG_STATS_RL:                Uvel (DYNAMICS) mean=  2.96668668381655E-03
DEBUG_STATS_RL:                Uvel (DYNAMICS) S.D.=  2.12431467782266E-02
DEBUG_STATS_RL:                Vvel (DYNAMICS)  min= -1.08483371151640E-01
DEBUG_STATS_RL:                Vvel (DYNAMICS)  max=  1.13655358776614E-01
DEBUG_STATS_RL:                Vvel (DYNAMICS) mean= -3.13947966004293E-04
DEBUG_STATS_RL:                Vvel (DYNAMICS) S.D.=  1.35236115408772E-02
DEBUG_STATS_RL:                Wvel (DYNAMICS)  min= -1.09212838323405E-04
DEBUG_STATS_RL:                Wvel (DYNAMICS)  max=  9.02028029544031E-05
DEBUG_STATS_RL:                Wvel (DYNAMICS) mean= -3.39039347629241E-07
DEBUG_STATS_RL:                Wvel (DYNAMICS) S.D.=  1.32925569245209E-05
DEBUG_STATS_RL:               Theta (DYNAMICS)  min= -2.00348064453808E+00
DEBUG_STATS_RL:               Theta (DYNAMICS)  max=  3.01010559898747E+01
DEBUG_STATS_RL:               Theta (DYNAMICS) mean=  3.22145825858350E+00
DEBUG_STATS_RL:               Theta (DYNAMICS) S.D.=  5.86096763952014E+00
DEBUG_STATS_RL:                Salt (DYNAMICS)  min=  9.99999999999998E-03
DEBUG_STATS_RL:                Salt (DYNAMICS)  max=  3.74650343561048E+01
DEBUG_STATS_RL:                Salt (DYNAMICS) mean=  1.88548312714946E+01
DEBUG_STATS_RL:                Salt (DYNAMICS) S.D.=  1.73003499009422E+01
DEBUG_STATS_RL:                  Gu (DYNAMICS)  min= -1.67858802688322E-01
DEBUG_STATS_RL:                  Gu (DYNAMICS)  max=  1.21659832271907E-01
DEBUG_STATS_RL:                  Gu (DYNAMICS) mean=  2.93996695004037E-03
DEBUG_STATS_RL:                  Gu (DYNAMICS) S.D.=  2.21391248025388E-02
DEBUG_STATS_RL:                  Gv (DYNAMICS)  min= -1.05348968007076E-01
DEBUG_STATS_RL:                  Gv (DYNAMICS)  max=  1.10675192113996E-01
DEBUG_STATS_RL:                  Gv (DYNAMICS) mean=  1.98330435468508E-03
DEBUG_STATS_RL:                  Gv (DYNAMICS) S.D.=  1.37480935413557E-02
DEBUG_STATS_RL:               GuNm1 (DYNAMICS)  min= -8.29940685359025E-06
DEBUG_STATS_RL:               GuNm1 (DYNAMICS)  max=  8.00981546043044E-06
DEBUG_STATS_RL:               GuNm1 (DYNAMICS) mean= -2.01681197405440E-08
DEBUG_STATS_RL:               GuNm1 (DYNAMICS) S.D.=  1.18353716284459E-06
DEBUG_STATS_RL:               GvNm1 (DYNAMICS)  min= -1.06477278013511E-05
DEBUG_STATS_RL:               GvNm1 (DYNAMICS)  max=  1.64293441849762E-05
DEBUG_STATS_RL:               GvNm1 (DYNAMICS) mean=  7.53897003858261E-07
DEBUG_STATS_RL:               GvNm1 (DYNAMICS) S.D.=  2.63180583278448E-06
DEBUG_STATS_RL:               GtNm1 (DYNAMICS)  min= -2.91386520352655E-06
DEBUG_STATS_RL:               GtNm1 (DYNAMICS)  max=  2.28652612053507E-06
DEBUG_STATS_RL:               GtNm1 (DYNAMICS) mean=  1.12857000254667E-08
DEBUG_STATS_RL:               GtNm1 (DYNAMICS) S.D.=  2.04499451204530E-07
DEBUG_STATS_RL:               GsNm1 (DYNAMICS)  min= -4.65717166922020E-07
DEBUG_STATS_RL:               GsNm1 (DYNAMICS)  max=  3.07438313954676E-07
DEBUG_STATS_RL:               GsNm1 (DYNAMICS) mean= -2.77431948035068E-10
DEBUG_STATS_RL:               GsNm1 (DYNAMICS) S.D.=  1.76905886498187E-08
DEBUG_STATS_RL:    cg2d_b (SOLVE_FOR_PRESSURE)  min= -1.93421868359929E+04
DEBUG_STATS_RL:    cg2d_b (SOLVE_FOR_PRESSURE)  max=  1.67873933132192E+04
DEBUG_STATS_RL:    cg2d_b (SOLVE_FOR_PRESSURE) mean=  2.57598577498872E+00
DEBUG_STATS_RL:    cg2d_b (SOLVE_FOR_PRESSURE) S.D.=  3.74556963450728E+03
 cg2d: Sum(rhs),rhsMax =   3.08310901950422E-01  1.27044661865637E+00
(PID.TID 0000.0001)  cg2d: iter=     1 ; resid.=  1.68834695999858E-01
(PID.TID 0000.0001)  cg2d: iter=     2 ; resid.=  1.43667608228196E-01
(PID.TID 0000.0001)  cg2d: iter=     3 ; resid.=  1.40817116881655E-01
(PID.TID 0000.0001)  cg2d: iter=     4 ; resid.=  1.26799488956415E-01
(PID.TID 0000.0001)  cg2d: iter=     5 ; resid.=  1.24432664263608E-01
(PID.TID 0000.0001)  cg2d: iter=     6 ; resid.=  1.06149932630082E-01
(PID.TID 0000.0001)  cg2d: iter=     7 ; resid.=  9.19926306326908E-02
(PID.TID 0000.0001)  cg2d: iter=     8 ; resid.=  6.92073922862975E-02
(PID.TID 0000.0001)  cg2d: iter=     9 ; resid.=  5.29031888545534E-02
(PID.TID 0000.0001)  cg2d: iter=    10 ; resid.=  4.16269724205876E-02
(PID.TID 0000.0001)  cg2d: iter=    11 ; resid.=  3.72313074136142E-02
(PID.TID 0000.0001)  cg2d: iter=    12 ; resid.=  3.13783323722715E-02
(PID.TID 0000.0001)  cg2d: iter=    13 ; resid.=  2.53864330312922E-02
(PID.TID 0000.0001)  cg2d: iter=    14 ; resid.=  2.18041142960251E-02
(PID.TID 0000.0001)  cg2d: iter=    15 ; resid.=  1.73012236851080E-02
(PID.TID 0000.0001)  cg2d: iter=    16 ; resid.=  1.49770580555553E-02
(PID.TID 0000.0001)  cg2d: iter=    17 ; resid.=  1.29797440209593E-02
(PID.TID 0000.0001)  cg2d: iter=    18 ; resid.=  1.13831988355963E-02
(PID.TID 0000.0001)  cg2d: iter=    19 ; resid.=  8.91795008543112E-03
(PID.TID 0000.0001)  cg2d: iter=    20 ; resid.=  6.83263369109341E-03
(PID.TID 0000.0001)  cg2d: iter=    21 ; resid.=  5.51772725805446E-03
(PID.TID 0000.0001)  cg2d: iter=    22 ; resid.=  4.74621697634590E-03
(PID.TID 0000.0001)  cg2d: iter=    23 ; resid.=  4.22244000555582E-03
(PID.TID 0000.0001)  cg2d: iter=    24 ; resid.=  3.97484729130693E-03
(PID.TID 0000.0001)  cg2d: iter=    25 ; resid.=  3.14293801648492E-03
(PID.TID 0000.0001)  cg2d: iter=    26 ; resid.=  2.48209656776536E-03
(PID.TID 0000.0001)  cg2d: iter=    27 ; resid.=  1.90819814344810E-03
(PID.TID 0000.0001)  cg2d: iter=    28 ; resid.=  1.50706761207255E-03
(PID.TID 0000.0001)  cg2d: iter=    29 ; resid.=  1.15449200370462E-03
(PID.TID 0000.0001)  cg2d: iter=    30 ; resid.=  9.59013728159618E-04
(PID.TID 0000.0001)  cg2d: iter=    31 ; resid.=  7.99183583486806E-04
(PID.TID 0000.0001)  cg2d: iter=    32 ; resid.=  6.47575804431697E-04
(PID.TID 0000.0001)  cg2d: iter=    33 ; resid.=  5.59351796946509E-04
(PID.TID 0000.0001)  cg2d: iter=    34 ; resid.=  4.89608044007182E-04
(PID.TID 0000.0001)  cg2d: iter=    35 ; resid.=  4.16137697979175E-04
(PID.TID 0000.0001)  cg2d: iter=    36 ; resid.=  3.57339090367555E-04
(PID.TID 0000.0001)  cg2d: iter=    37 ; resid.=  3.05661518157037E-04
(PID.TID 0000.0001)  cg2d: iter=    38 ; resid.=  2.77669353625715E-04
(PID.TID 0000.0001)  cg2d: iter=    39 ; resid.=  2.43023658649721E-04
(PID.TID 0000.0001)  cg2d: iter=    40 ; resid.=  1.94638156692077E-04
(PID.TID 0000.0001)  cg2d: iter=    41 ; resid.=  1.62817425304745E-04
(PID.TID 0000.0001)  cg2d: iter=    42 ; resid.=  1.41070253184113E-04
(PID.TID 0000.0001)  cg2d: iter=    43 ; resid.=  1.20406858009367E-04
(PID.TID 0000.0001)  cg2d: iter=    44 ; resid.=  9.89338216124503E-05
(PID.TID 0000.0001)  cg2d: iter=    45 ; resid.=  7.61310546843005E-05
(PID.TID 0000.0001)  cg2d: iter=    46 ; resid.=  5.92378272668505E-05
(PID.TID 0000.0001)  cg2d: iter=    47 ; resid.=  5.03678386732698E-05
(PID.TID 0000.0001)  cg2d: iter=    48 ; resid.=  4.09405791447017E-05
(PID.TID 0000.0001)  cg2d: iter=    49 ; resid.=  3.30870025953456E-05
(PID.TID 0000.0001)  cg2d: iter=    50 ; resid.=  2.95604611793035E-05
(PID.TID 0000.0001)  cg2d: iter=    51 ; resid.=  2.75086158890709E-05
(PID.TID 0000.0001)  cg2d: iter=    52 ; resid.=  2.32412312525249E-05
(PID.TID 0000.0001)  cg2d: iter=    53 ; resid.=  1.93249880055959E-05
(PID.TID 0000.0001)  cg2d: iter=    54 ; resid.=  1.60635683715607E-05
(PID.TID 0000.0001)  cg2d: iter=    55 ; resid.=  1.28338794724279E-05
(PID.TID 0000.0001)  cg2d: iter=    56 ; resid.=  1.03633218605052E-05
(PID.TID 0000.0001)  cg2d: iter=    57 ; resid.=  8.40800437320345E-06
(PID.TID 0000.0001)  cg2d: iter=    58 ; resid.=  6.91208452767343E-06
(PID.TID 0000.0001)  cg2d: iter=    59 ; resid.=  5.87676136894481E-06
(PID.TID 0000.0001)  cg2d: iter=    60 ; resid.=  4.82810832593929E-06
(PID.TID 0000.0001)  cg2d: iter=    61 ; resid.=  4.14886197794869E-06
(PID.TID 0000.0001)  cg2d: iter=    62 ; resid.=  3.54407613365338E-06
(PID.TID 0000.0001)  cg2d: iter=    63 ; resid.=  2.91660210060802E-06
(PID.TID 0000.0001)  cg2d: iter=    64 ; resid.=  2.33662385156068E-06
(PID.TID 0000.0001)  cg2d: iter=    65 ; resid.=  1.76612289341034E-06
(PID.TID 0000.0001)  cg2d: iter=    66 ; resid.=  1.54071458475672E-06
(PID.TID 0000.0001)  cg2d: iter=    67 ; resid.=  1.30042732814537E-06
(PID.TID 0000.0001)  cg2d: iter=    68 ; resid.=  1.16258329588163E-06
(PID.TID 0000.0001)  cg2d: iter=    69 ; resid.=  9.01742964444013E-07
(PID.TID 0000.0001)  cg2d: iter=    70 ; resid.=  7.04480769254693E-07
(PID.TID 0000.0001)  cg2d: iter=    71 ; resid.=  5.86939255964227E-07
(PID.TID 0000.0001)  cg2d: iter=    72 ; resid.=  5.22985684034434E-07
(PID.TID 0000.0001)  cg2d: iter=    73 ; resid.=  4.80397874505632E-07
(PID.TID 0000.0001)  cg2d: iter=    74 ; resid.=  4.12883271771787E-07
(PID.TID 0000.0001)  cg2d: iter=    75 ; resid.=  3.32225048158888E-07
(PID.TID 0000.0001)  cg2d: iter=    76 ; resid.=  2.77623519206066E-07
(PID.TID 0000.0001)  cg2d: iter=    77 ; resid.=  2.19091438987087E-07
(PID.TID 0000.0001)  cg2d: iter=    78 ; resid.=  1.65292640864847E-07
(PID.TID 0000.0001)  cg2d: iter=    79 ; resid.=  1.32719043405872E-07
(PID.TID 0000.0001)  cg2d: iter=    80 ; resid.=  9.52181154255642E-08
(PID.TID 0000.0001)  cg2d: iter=    81 ; resid.=  6.82748036753425E-08
(PID.TID 0000.0001)  cg2d: iter=    82 ; resid.=  5.27901317888196E-08
(PID.TID 0000.0001)  cg2d: iter=    83 ; resid.=  3.95446795908635E-08
(PID.TID 0000.0001)  cg2d: iter=    84 ; resid.=  2.88423548068500E-08
(PID.TID 0000.0001)  cg2d: iter=    85 ; resid.=  2.11726573320396E-08
(PID.TID 0000.0001)  cg2d: iter=    86 ; resid.=  1.56458833750759E-08
(PID.TID 0000.0001)  cg2d: iter=    87 ; resid.=  1.32542049615539E-08
(PID.TID 0000.0001)  cg2d: iter=    88 ; resid.=  1.09295142161890E-08
(PID.TID 0000.0001)  cg2d: iter=    89 ; resid.=  9.22062186080845E-09
(PID.TID 0000.0001)  cg2d: iter=    90 ; resid.=  7.65740398109523E-09
(PID.TID 0000.0001)  cg2d: iter=    91 ; resid.=  5.86284624397983E-09
(PID.TID 0000.0001)  cg2d: iter=    92 ; resid.=  4.39314575390772E-09
(PID.TID 0000.0001)  cg2d: iter=    93 ; resid.=  3.53738326098234E-09
(PID.TID 0000.0001)  cg2d: iter=    94 ; resid.=  2.82979837728307E-09
(PID.TID 0000.0001)  cg2d: iter=    95 ; resid.=  2.42053702546213E-09
(PID.TID 0000.0001)  cg2d: iter=    96 ; resid.=  1.88954567109087E-09
(PID.TID 0000.0001)  cg2d: iter=    97 ; resid.=  1.46114025666574E-09
(PID.TID 0000.0001)  cg2d: iter=    98 ; resid.=  1.09973041522219E-09
(PID.TID 0000.0001)  cg2d: iter=    99 ; resid.=  9.49530921249847E-10
(PID.TID 0000.0001)  cg2d: iter=   100 ; resid.=  8.11620464242814E-10
(PID.TID 0000.0001)  cg2d: iter=   101 ; resid.=  6.91846559910377E-10
(PID.TID 0000.0001)  cg2d: iter=   102 ; resid.=  5.60521772813507E-10
(PID.TID 0000.0001)  cg2d: iter=   103 ; resid.=  4.42022629314218E-10
(PID.TID 0000.0001)  cg2d: iter=   104 ; resid.=  3.72237899417683E-10
(PID.TID 0000.0001)  cg2d: iter=   105 ; resid.=  3.07022472354553E-10
(PID.TID 0000.0001)  cg2d: iter=   106 ; resid.=  2.65557139186339E-10
(PID.TID 0000.0001)  cg2d: iter=   107 ; resid.=  2.12151787475051E-10
(PID.TID 0000.0001)  cg2d: iter=   108 ; resid.=  1.58485451122217E-10
(PID.TID 0000.0001)  cg2d: iter=   109 ; resid.=  1.14041323463855E-10
(PID.TID 0000.0001)  cg2d: iter=   110 ; resid.=  8.36106770486391E-11
(PID.TID 0000.0001)  cg2d: iter=   111 ; resid.=  6.38208073593641E-11
(PID.TID 0000.0001)  cg2d: iter=   112 ; resid.=  4.70413115039687E-11
(PID.TID 0000.0001)  cg2d: iter=   113 ; resid.=  3.14905749851502E-11
(PID.TID 0000.0001)  cg2d: iter=   114 ; resid.=  2.22071603014008E-11
(PID.TID 0000.0001)  cg2d: iter=   115 ; resid.=  1.61553434963461E-11
(PID.TID 0000.0001)  cg2d: iter=   116 ; resid.=  1.10978582374104E-11
(PID.TID 0000.0001)  cg2d: iter=   117 ; resid.=  8.51647805746303E-12
(PID.TID 0000.0001)  cg2d: iter=   118 ; resid.=  7.10385354877721E-12
(PID.TID 0000.0001)  cg2d: iter=   119 ; resid.=  5.82530870358252E-12
(PID.TID 0000.0001)  cg2d: iter=   120 ; resid.=  4.35318109666176E-12
(PID.TID 0000.0001)  cg2d: iter=   121 ; resid.=  3.60913898238151E-12
(PID.TID 0000.0001)  cg2d: iter=   122 ; resid.=  2.92310982648526E-12
(PID.TID 0000.0001)  cg2d: iter=   123 ; resid.=  2.23394380542702E-12
(PID.TID 0000.0001)  cg2d: iter=   124 ; resid.=  1.62403431802910E-12
(PID.TID 0000.0001)  cg2d: iter=   125 ; resid.=  1.23365970615204E-12
(PID.TID 0000.0001)  cg2d: iter=   126 ; resid.=  9.62860802045786E-13
(PID.TID 0000.0001)  cg2d: iter=   127 ; resid.=  6.17727712953540E-13
(PID.TID 0000.0001)  cg2d: iter=   128 ; resid.=  4.17354660971386E-13
(PID.TID 0000.0001)  cg2d: iter=   129 ; resid.=  2.88989508998945E-13
(PID.TID 0000.0001)  cg2d: iter=   130 ; resid.=  2.08116477409962E-13
(PID.TID 0000.0001)  cg2d: iter=   131 ; resid.=  1.46567283020562E-13
(PID.TID 0000.0001)  cg2d: iter=   132 ; resid.=  1.04531750068127E-13
(PID.TID 0000.0001)  cg2d: iter=   133 ; resid.=  7.36548557355868E-14
DEBUG_STATS_RL:    cg2d_x (SOLVE_FOR_PRESSURE)  min= -1.68623999812581E+01
DEBUG_STATS_RL:    cg2d_x (SOLVE_FOR_PRESSURE)  max=  8.58824049529219E+00
DEBUG_STATS_RL:    cg2d_x (SOLVE_FOR_PRESSURE) mean= -1.64391263178322E+00
DEBUG_STATS_RL:    cg2d_x (SOLVE_FOR_PRESSURE) S.D.=  6.51816324053575E+00
(PID.TID 0000.0001)      cg2d_init_res =   4.53045690565657E-01
(PID.TID 0000.0001)      cg2d_iters(min,last) =      -1     133
(PID.TID 0000.0001)      cg2d_last_res =   7.36548557355868E-14
(PID.TID 0000.0001) // =======================================================
(PID.TID 0000.0001) // Begin MONITOR dynamic field statistics
(PID.TID 0000.0001) // =======================================================
(PID.TID 0000.0001) %MON time_tsnumber                =                    36
(PID.TID 0000.0001) %MON time_secondsf                =   3.1104000000000E+06
(PID.TID 0000.0001) %MON dynstat_eta_max              =   8.7545774671669E-01
(PID.TID 0000.0001) %MON dynstat_eta_min              =  -1.7188990806582E+00
(PID.TID 0000.0001) %MON dynstat_eta_mean             =  -2.6877217445102E-03
(PID.TID 0000.0001) %MON dynstat_eta_sd               =   5.8549310987467E-01
(PID.TID 0000.0001) %MON dynstat_eta_del2             =   2.1692856495355E-03
(PID.TID 0000.0001) %MON dynstat_uvel_max             =   1.2575880585305E-01
(PID.TID 0000.0001) %MON dynstat_uvel_min             =  -1.6655315822336E-01
(PID.TID 0000.0001) %MON dynstat_uvel_mean            =   1.8084061913794E-03
(PID.TID 0000.0001) %MON dynstat_uvel_sd              =   1.4005717951581E-02
(PID.TID 0000.0001) %MON dynstat_uvel_del2            =   8.1376738226854E-05
(PID.TID 0000.0001) %MON dynstat_vvel_max             =   1.1167079265224E-01
(PID.TID 0000.0001) %MON dynstat_vvel_min             =  -1.1012317956502E-01
(PID.TID 0000.0001) %MON dynstat_vvel_mean            =  -8.5606234742054E-05
(PID.TID 0000.0001) %MON dynstat_vvel_sd              =   9.1469262852850E-03
(PID.TID 0000.0001) %MON dynstat_vvel_del2            =   7.9657863420060E-05
(PID.TID 0000.0001) %MON dynstat_wvel_max             =   8.6902405195675E-05
(PID.TID 0000.0001) %MON dynstat_wvel_min             =  -1.0460640325528E-04
(PID.TID 0000.0001) %MON dynstat_wvel_mean            =  -5.3735476084791E-23
(PID.TID 0000.0001) %MON dynstat_wvel_sd              =   1.4806909289818E-05
(PID.TID 0000.0001) %MON dynstat_wvel_del2            =   1.6592782542119E-07
(PID.TID 0000.0001) %MON dynstat_theta_max            =   3.0101055989875E+01
(PID.TID 0000.0001) %MON dynstat_theta_min            =  -2.0034806445381E+00
(PID.TID 0000.0001) %MON dynstat_theta_mean           =   3.6315728885549E+00
(PID.TID 0000.0001) %MON dynstat_theta_sd             =   4.4183768510483E+00
(PID.TID 0000.0001) %MON dynstat_theta_del2           =   4.7813254794841E-03
(PID.TID 0000.0001) %MON dynstat_salt_max             =   3.7465034356105E+01
(PID.TID 0000.0001) %MON dynstat_salt_min             =   2.9829812273660E+01
(PID.TID 0000.0001) %MON dynstat_salt_mean            =   3.4727987304400E+01
(PID.TID 0000.0001) %MON dynstat_salt_sd              =   2.9629730877550E-01
(PID.TID 0000.0001) %MON dynstat_salt_del2            =   9.8919577138405E-04
(PID.TID 0000.0001) %MON dynstat_sst_max              =   3.0101055989875E+01
(PID.TID 0000.0001) %MON dynstat_sst_min              =  -2.0034806445381E+00
(PID.TID 0000.0001) %MON dynstat_sst_mean             =   1.8800761350095E+01
(PID.TID 0000.0001) %MON dynstat_sst_sd               =   9.0295069855203E+00
(PID.TID 0000.0001) %MON dynstat_sst_del2             =   2.6804903464685E-02
(PID.TID 0000.0001) %MON dynstat_sss_max              =   3.7441577129028E+01
(PID.TID 0000.0001) %MON dynstat_sss_min              =   2.9829812273660E+01
(PID.TID 0000.0001) %MON dynstat_sss_mean             =   3.4854435851414E+01
(PID.TID 0000.0001) %MON dynstat_sss_sd               =   9.7623402470197E-01
(PID.TID 0000.0001) %MON dynstat_sss_del2             =   7.8549818150584E-03
(PID.TID 0000.0001) %MON forcing_qnet_max             =   3.7523188273112E+02
(PID.TID 0000.0001) %MON forcing_qnet_min             =  -1.7522916158040E+02
(PID.TID 0000.0001) %MON forcing_qnet_mean            =  -1.4814342652977E+01
(PID.TID 0000.0001) %MON forcing_qnet_sd              =   8.9107408305075E+01
(PID.TID 0000.0001) %MON forcing_qnet_del2            =   9.6203928083516E-01
(PID.TID 0000.0001) %MON forcing_qsw_max              =   0.0000000000000E+00
(PID.TID 0000.0001) %MON forcing_qsw_min              =   0.0000000000000E+00
(PID.TID 0000.0001) %MON forcing_qsw_mean             =   0.0000000000000E+00
(PID.TID 0000.0001) %MON forcing_qsw_sd               =   0.0000000000000E+00
(PID.TID 0000.0001) %MON forcing_qsw_del2             =   0.0000000000000E+00
(PID.TID 0000.0001) %MON forcing_empmr_max            =   7.5892444328929E-05
(PID.TID 0000.0001) %MON forcing_empmr_min            =  -7.7748841439037E-05
(PID.TID 0000.0001) %MON forcing_empmr_mean           =   9.3658500730980E-07
(PID.TID 0000.0001) %MON forcing_empmr_sd             =   2.8071739080641E-05
(PID.TID 0000.0001) %MON forcing_empmr_del2           =   3.5384713842938E-07
(PID.TID 0000.0001) %MON forcing_fu_max               =   2.9076394438744E-01
(PID.TID 0000.0001) %MON forcing_fu_min               =  -1.9913311302662E-01
(PID.TID 0000.0001) %MON forcing_fu_mean              =   1.7087739461946E-02
(PID.TID 0000.0001) %MON forcing_fu_sd                =   9.0639654675392E-02
(PID.TID 0000.0001) %MON forcing_fu_del2              =   6.8057641695719E-04
(PID.TID 0000.0001) %MON forcing_fv_max               =   1.8370781838894E-01
(PID.TID 0000.0001) %MON forcing_fv_min               =  -1.6796026627223E-01
(PID.TID 0000.0001) %MON forcing_fv_mean              =  -6.5641158738086E-03
(PID.TID 0000.0001) %MON forcing_fv_sd                =   4.4559893516707E-02
(PID.TID 0000.0001) %MON forcing_fv_del2              =   4.8000739041033E-04
(PID.TID 0000.0001) %MON trAdv_CFL_u_max              =   3.8791232966590E-02
(PID.TID 0000.0001) %MON trAdv_CFL_v_max              =   2.2264622875129E-02
(PID.TID 0000.0001) %MON trAdv_CFL_w_max              =   4.4168371908267E-02
(PID.TID 0000.0001) %MON advcfl_uvel_max              =   4.1567764677995E-02
(PID.TID 0000.0001) %MON advcfl_vvel_max              =   2.1695844028138E-02
(PID.TID 0000.0001) %MON advcfl_wvel_max              =   3.6184460287888E-02
(PID.TID 0000.0001) %MON advcfl_W_hf_max              =   4.2645971053583E-02
(PID.TID 0000.0001) %MON pe_b_mean                    =   4.3866595420067E-04
(PID.TID 0000.0001) %MON ke_max                       =   1.5344864144319E-02
(PID.TID 0000.0001) %MON ke_mean                      =   1.2816902185007E-04
(PID.TID 0000.0001) %MON ke_vol                       =   1.3226782436723E+18
(PID.TID 0000.0001) %MON vort_r_min                   =  -3.9403056830737E-07
(PID.TID 0000.0001) %MON vort_r_max                   =   4.4446151840867E-07
(PID.TID 0000.0001) %MON vort_a_mean                  =  -2.5274807199495E-05
(PID.TID 0000.0001) %MON vort_a_sd                    =   7.3604585250175E-05
(PID.TID 0000.0001) %MON vort_p_mean                  =  -3.1845655550052E-05
(PID.TID 0000.0001) %MON vort_p_sd                    =   1.3162551342710E-04
(PID.TID 0000.0001) %MON surfExpan_theta_mean         =   4.3625085778760E-07
(PID.TID 0000.0001) %MON surfExpan_salt_mean          =  -8.8209454760378E-08
(PID.TID 0000.0001) // =======================================================
(PID.TID 0000.0001) // End MONITOR dynamic field statistics
(PID.TID 0000.0001) // =======================================================
 EXTERNAL_FIELDS_LOAD,        36 : iP,iLd,i0,i1=    1    2    1    2 ; Wght=  0.3000000000  0.7000000000
 EXTERNAL_FIELDS_LOAD: (fu0,1),fu,fv= -3.5633E-02 -1.4435E-02 -2.0794E-02 -2.9522E-02
 EXTERNAL_FIELDS_LOAD: SST,SSS,Q,E-P= -8.4772E-02  3.4509E+01  2.4807E+02  9.3550E-06
DEBUG_STATS_RL:          Uvel (THERMODYNAMICS)  min= -1.66553158223361E-01
DEBUG_STATS_RL:          Uvel (THERMODYNAMICS)  max=  1.25758805853053E-01
DEBUG_STATS_RL:          Uvel (THERMODYNAMICS) mean=  3.04578133898615E-03
DEBUG_STATS_RL:          Uvel (THERMODYNAMICS) S.D.=  2.17894699889544E-02
DEBUG_STATS_RL:          Vvel (THERMODYNAMICS)  min= -1.10123179565019E-01
DEBUG_STATS_RL:          Vvel (THERMODYNAMICS)  max=  1.11670792652237E-01
DEBUG_STATS_RL:          Vvel (THERMODYNAMICS) mean= -3.32868155987066E-04
DEBUG_STATS_RL:          Vvel (THERMODYNAMICS) S.D.=  1.36960204439860E-02
DEBUG_STATS_RL:          Wvel (THERMODYNAMICS)  min= -1.04606403255283E-04
DEBUG_STATS_RL:          Wvel (THERMODYNAMICS)  max=  8.69024051956746E-05
DEBUG_STATS_RL:          Wvel (THERMODYNAMICS) mean= -3.65801493186792E-07
DEBUG_STATS_RL:          Wvel (THERMODYNAMICS) S.D.=  1.32698716091153E-05
DEBUG_STATS_RL:         Theta (THERMODYNAMICS)  min= -2.00258006237836E+00
DEBUG_STATS_RL:         Theta (THERMODYNAMICS)  max=  3.01243605597721E+01
DEBUG_STATS_RL:         Theta (THERMODYNAMICS) mean=  3.22203114998604E+00
DEBUG_STATS_RL:         Theta (THERMODYNAMICS) S.D.=  5.86156124555433E+00
DEBUG_STATS_RL:          Salt (THERMODYNAMICS)  min=  9.99999999999998E-03
DEBUG_STATS_RL:          Salt (THERMODYNAMICS)  max=  3.74653427272594E+01
DEBUG_STATS_RL:          Salt (THERMODYNAMICS) mean=  1.88548270859702E+01
DEBUG_STATS_RL:          Salt (THERMODYNAMICS) S.D.=  1.73003469160509E+01
DEBUG_STATS_RL:         GtNm1 (THERMODYNAMICS)  min= -5.33456440904487E-06
DEBUG_STATS_RL:         GtNm1 (THERMODYNAMICS)  max=  3.09690026474117E-06
DEBUG_STATS_RL:         GtNm1 (THERMODYNAMICS) mean=  1.20530496567185E-08
DEBUG_STATS_RL:         GtNm1 (THERMODYNAMICS) S.D.=  2.06425990351340E-07
DEBUG_STATS_RL:         GsNm1 (THERMODYNAMICS)  min= -6.97571883478724E-07
DEBUG_STATS_RL:         GsNm1 (THERMODYNAMICS)  max=  4.70078902427335E-07
DEBUG_STATS_RL:         GsNm1 (THERMODYNAMICS) mean= -2.00759763178540E-10
DEBUG_STATS_RL:         GsNm1 (THERMODYNAMICS) S.D.=  1.82303041113595E-08
DEBUG_STATS_RL:                EtaN (DYNAMICS)  min= -1.71889908065823E+00
DEBUG_STATS_RL:                EtaN (DYNAMICS)  max=  8.75457746716691E-01
DEBUG_STATS_RL:                EtaN (DYNAMICS) mean= -1.67575191822959E-01
DEBUG_STATS_RL:                EtaN (DYNAMICS) S.D.=  6.64440697302318E-01
DEBUG_STATS_RL:                Uvel (DYNAMICS)  min= -1.66553158223361E-01
DEBUG_STATS_RL:                Uvel (DYNAMICS)  max=  1.25758805853053E-01
DEBUG_STATS_RL:                Uvel (DYNAMICS) mean=  3.04578133898615E-03
DEBUG_STATS_RL:                Uvel (DYNAMICS) S.D.=  2.17894699889544E-02
DEBUG_STATS_RL:                Vvel (DYNAMICS)  min= -1.10123179565019E-01
DEBUG_STATS_RL:                Vvel (DYNAMICS)  max=  1.11670792652237E-01
DEBUG_STATS_RL:                Vvel (DYNAMICS) mean= -3.32868155987066E-04
DEBUG_STATS_RL:                Vvel (DYNAMICS) S.D.=  1.36960204439860E-02
DEBUG_STATS_RL:                Wvel (DYNAMICS)  min= -1.04606403255283E-04
DEBUG_STATS_RL:                Wvel (DYNAMICS)  max=  8.69024051956746E-05
DEBUG_STATS_RL:                Wvel (DYNAMICS) mean= -3.65801493186792E-07
DEBUG_STATS_RL:                Wvel (DYNAMICS) S.D.=  1.32698716091153E-05
DEBUG_STATS_RL:               Theta (DYNAMICS)  min= -2.00258006237836E+00
DEBUG_STATS_RL:               Theta (DYNAMICS)  max=  3.01243605597721E+01
DEBUG_STATS_RL:               Theta (DYNAMICS) mean=  3.22203114998604E+00
DEBUG_STATS_RL:               Theta (DYNAMICS) S.D.=  5.86156124555433E+00
DEBUG_STATS_RL:                Salt (DYNAMICS)  min=  9.99999999999998E-03
DEBUG_STATS_RL:                Salt (DYNAMICS)  max=  3.74653427272594E+01
DEBUG_STATS_RL:                Salt (DYNAMICS) mean=  1.88548270859702E+01
DEBUG_STATS_RL:                Salt (DYNAMICS) S.D.=  1.73003469160509E+01
DEBUG_STATS_RL:                  Gu (DYNAMICS)  min= -1.65007304485521E-01
DEBUG_STATS_RL:                  Gu (DYNAMICS)  max=  1.28940790710702E-01
DEBUG_STATS_RL:                  Gu (DYNAMICS) mean=  3.00181079549837E-03
DEBUG_STATS_RL:                  Gu (DYNAMICS) S.D.=  2.26895786914457E-02
DEBUG_STATS_RL:                  Gv (DYNAMICS)  min= -1.06796587182064E-01
DEBUG_STATS_RL:                  Gv (DYNAMICS)  max=  1.14898555072612E-01
DEBUG_STATS_RL:                  Gv (DYNAMICS) mean=  2.00140041543766E-03
DEBUG_STATS_RL:                  Gv (DYNAMICS) S.D.=  1.38466891762407E-02
DEBUG_STATS_RL:               GuNm1 (DYNAMICS)  min= -8.37860022699833E-06
DEBUG_STATS_RL:               GuNm1 (DYNAMICS)  max=  8.09266253598881E-06
DEBUG_STATS_RL:               GuNm1 (DYNAMICS) mean= -2.01546040109842E-08
DEBUG_STATS_RL:               GuNm1 (DYNAMICS) S.D.=  1.17976416068926E-06
DEBUG_STATS_RL:               GvNm1 (DYNAMICS)  min= -1.05636552940236E-05
DEBUG_STATS_RL:               GvNm1 (DYNAMICS)  max=  1.64018638443052E-05
DEBUG_STATS_RL:               GvNm1 (DYNAMICS) mean=  7.52416706734713E-07
DEBUG_STATS_RL:               GvNm1 (DYNAMICS) S.D.=  2.62478855198149E-06
DEBUG_STATS_RL:               GtNm1 (DYNAMICS)  min= -5.33456440904487E-06
DEBUG_STATS_RL:               GtNm1 (DYNAMICS)  max=  3.09690026474117E-06
DEBUG_STATS_RL:               GtNm1 (DYNAMICS) mean=  1.20530496567185E-08
DEBUG_STATS_RL:               GtNm1 (DYNAMICS) S.D.=  2.06425990351340E-07
DEBUG_STATS_RL:               GsNm1 (DYNAMICS)  min= -6.97571883478724E-07
DEBUG_STATS_RL:               GsNm1 (DYNAMICS)  max=  4.70078902427335E-07
DEBUG_STATS_RL:               GsNm1 (DYNAMICS) mean= -2.00759763178540E-10
DEBUG_STATS_RL:               GsNm1 (DYNAMICS) S.D.=  1.82303041113595E-08
DEBUG_STATS_RL:    cg2d_b (SOLVE_FOR_PRESSURE)  min= -1.96974919392387E+04
DEBUG_STATS_RL:    cg2d_b (SOLVE_FOR_PRESSURE)  max=  1.68095097076628E+04
DEBUG_STATS_RL:    cg2d_b (SOLVE_FOR_PRESSURE) mean=  2.65097451595762E+00
DEBUG_STATS_RL:    cg2d_b (SOLVE_FOR_PRESSURE) S.D.=  3.72305208893256E+03
 cg2d: Sum(rhs),rhsMax =   3.11562813345626E-01  1.29378400914057E+00
(PID.TID 0000.0001)  cg2d: iter=     1 ; resid.=  1.62721848248178E-01
(PID.TID 0000.0001)  cg2d: iter=     2 ; resid.=  1.34826480736456E-01
(PID.TID 0000.0001)  cg2d: iter=     3 ; resid.=  1.33123502314870E-01
(PID.TID 0000.0001)  cg2d: iter=     4 ; resid.=  1.19619789526249E-01
(PID.TID 0000.0001)  cg2d: iter=     5 ; resid.=  1.15369274217508E-01
(PID.TID 0000.0001)  cg2d: iter=     6 ; resid.=  9.82460309950432E-02
(PID.TID 0000.0001)  cg2d: iter=     7 ; resid.=  8.46477999239681E-02
(PID.TID 0000.0001)  cg2d: iter=     8 ; resid.=  6.52660258268133E-02
(PID.TID 0000.0001)  cg2d: iter=     9 ; resid.=  5.16348424438789E-02
(PID.TID 0000.0001)  cg2d: iter=    10 ; resid.=  4.10670884589997E-02
(PID.TID 0000.0001)  cg2d: iter=    11 ; resid.=  3.68081687878444E-02
(PID.TID 0000.0001)  cg2d: iter=    12 ; resid.=  3.10568832258289E-02
(PID.TID 0000.0001)  cg2d: iter=    13 ; resid.=  2.49134620836344E-02
(PID.TID 0000.0001)  cg2d: iter=    14 ; resid.=  2.12313637897084E-02
(PID.TID 0000.0001)  cg2d: iter=    15 ; resid.=  1.68600910728862E-02
(PID.TID 0000.0001)  cg2d: iter=    16 ; resid.=  1.44754261431877E-02
(PID.TID 0000.0001)  cg2d: iter=    17 ; resid.=  1.24622936548923E-02
(PID.TID 0000.0001)  cg2d: iter=    18 ; resid.=  1.08235416489474E-02
(PID.TID 0000.0001)  cg2d: iter=    19 ; resid.=  8.58476067131918E-03
(PID.TID 0000.0001)  cg2d: iter=    20 ; resid.=  6.59597145787806E-03
(PID.TID 0000.0001)  cg2d: iter=    21 ; resid.=  5.26609897034421E-03
(PID.TID 0000.0001)  cg2d: iter=    22 ; resid.=  4.53651869887172E-03
(PID.TID 0000.0001)  cg2d: iter=    23 ; resid.=  3.99258004185600E-03
(PID.TID 0000.0001)  cg2d: iter=    24 ; resid.=  3.70417121658736E-03
(PID.TID 0000.0001)  cg2d: iter=    25 ; resid.=  2.92408777624405E-03
(PID.TID 0000.0001)  cg2d: iter=    26 ; resid.=  2.31438802240375E-03
(PID.TID 0000.0001)  cg2d: iter=    27 ; resid.=  1.79991416180489E-03
(PID.TID 0000.0001)  cg2d: iter=    28 ; resid.=  1.45306560034311E-03
(PID.TID 0000.0001)  cg2d: iter=    29 ; resid.=  1.15114897057811E-03
(PID.TID 0000.0001)  cg2d: iter=    30 ; resid.=  9.73758480371711E-04
(PID.TID 0000.0001)  cg2d: iter=    31 ; resid.=  8.02525567711138E-04
(PID.TID 0000.0001)  cg2d: iter=    32 ; resid.=  6.27411654617876E-04
(PID.TID 0000.0001)  cg2d: iter=    33 ; resid.=  5.25332246471469E-04
(PID.TID 0000.0001)  cg2d: iter=    34 ; resid.=  4.58453415489669E-04
(PID.TID 0000.0001)  cg2d: iter=    35 ; resid.=  3.82499036858778E-04
(PID.TID 0000.0001)  cg2d: iter=    36 ; resid.=  3.26694923328122E-04
(PID.TID 0000.0001)  cg2d: iter=    37 ; resid.=  2.74836386155211E-04
(PID.TID 0000.0001)  cg2d: iter=    38 ; resid.=  2.51618831925620E-04
(PID.TID 0000.0001)  cg2d: iter=    39 ; resid.=  2.24322945401536E-04
(PID.TID 0000.0001)  cg2d: iter=    40 ; resid.=  1.82646778858146E-04
(PID.TID 0000.0001)  cg2d: iter=    41 ; resid.=  1.55663876534914E-04
(PID.TID 0000.0001)  cg2d: iter=    42 ; resid.=  1.35542984550863E-04
(PID.TID 0000.0001)  cg2d: iter=    43 ; resid.=  1.15356546252071E-04
(PID.TID 0000.0001)  cg2d: iter=    44 ; resid.=  9.47569212928761E-05
(PID.TID 0000.0001)  cg2d: iter=    45 ; resid.=  7.31740292543204E-05
(PID.TID 0000.0001)  cg2d: iter=    46 ; resid.=  5.64474491376484E-05
(PID.TID 0000.0001)  cg2d: iter=    47 ; resid.=  4.81280971528363E-05
(PID.TID 0000.0001)  cg2d: iter=    48 ; resid.=  4.01238274581823E-05
(PID.TID 0000.0001)  cg2d: iter=    49 ; resid.=  3.29375652154737E-05
(PID.TID 0000.0001)  cg2d: iter=    50 ; resid.=  2.93945734311625E-05
(PID.TID 0000.0001)  cg2d: iter=    51 ; resid.=  2.64232728318954E-05
(PID.TID 0000.0001)  cg2d: iter=    52 ; resid.=  2.15911938059799E-05
(PID.TID 0000.0001)  cg2d: iter=    53 ; resid.=  1.75767873623259E-05
(PID.TID 0000.0001)  cg2d: iter=    54 ; resid.=  1.47880879720408E-05
(PID.TID 0000.0001)  cg2d: iter=    55 ; resid.=  1.22972886566305E-05
(PID.TID 0000.0001)  cg2d: iter=    56 ; resid.=  1.00422700299853E-05
(PID.TID 0000.0001)  cg2d: iter=    57 ; resid.=  8.18601951871128E-06
(PID.TID 0000.0001)  cg2d: iter=    58 ; resid.=  6.81908451909689E-06
(PID.TID 0000.0001)  cg2d: iter=    59 ; resid.=  5.87742497287540E-06
(PID.TID 0000.0001)  cg2d: iter=    60 ; resid.=  4.81538279462233E-06
(PID.TID 0000.0001)  cg2d: iter=    61 ; resid.=  4.10147757978480E-06
(PID.TID 0000.0001)  cg2d: iter=    62 ; resid.=  3.49534973964273E-06
(PID.TID 0000.0001)  cg2d: iter=    63 ; resid.=  2.90215850312918E-06
(PID.TID 0000.0001)  cg2d: iter=    64 ; resid.=  2.34129923487160E-06
(PID.TID 0000.0001)  cg2d: iter=    65 ; resid.=  1.82375575222022E-06
(PID.TID 0000.0001)  cg2d: iter=    66 ; resid.=  1.60810465490403E-06
(PID.TID 0000.0001)  cg2d: iter=    67 ; resid.=  1.34314088706781E-06
(PID.TID 0000.0001)  cg2d: iter=    68 ; resid.=  1.15921200280988E-06
(PID.TID 0000.0001)  cg2d: iter=    69 ; resid.=  8.70219438871207E-07
(PID.TID 0000.0001)  cg2d: iter=    70 ; resid.=  6.64919862928399E-07
(PID.TID 0000.0001)  cg2d: iter=    71 ; resid.=  5.59375829158957E-07
(PID.TID 0000.0001)  cg2d: iter=    72 ; resid.=  4.98988330260931E-07
(PID.TID 0000.0001)  cg2d: iter=    73 ; resid.=  4.62816114842184E-07
(PID.TID 0000.0001)  cg2d: iter=    74 ; resid.=  3.98792661181470E-07
(PID.TID 0000.0001)  cg2d: iter=    75 ; resid.=  3.25611447292370E-07
(PID.TID 0000.0001)  cg2d: iter=    76 ; resid.=  2.69933189729402E-07
(PID.TID 0000.0001)  cg2d: iter=    77 ; resid.=  2.19508473042443E-07
(PID.TID 0000.0001)  cg2d: iter=    78 ; resid.=  1.69230143422442E-07
(PID.TID 0000.0001)  cg2d: iter=    79 ; resid.=  1.35260001196691E-07
(PID.TID 0000.0001)  cg2d: iter=    80 ; resid.=  9.83599191280850E-08
(PID.TID 0000.0001)  cg2d: iter=    81 ; resid.=  7.07800258543767E-08
(PID.TID 0000.0001)  cg2d: iter=    82 ; resid.=  5.48248851586895E-08
(PID.TID 0000.0001)  cg2d: iter=    83 ; resid.=  4.03210515845788E-08
(PID.TID 0000.0001)  cg2d: iter=    84 ; resid.=  2.95980460156724E-08
(PID.TID 0000.0001)  cg2d: iter=    85 ; resid.=  2.16171906912474E-08
(PID.TID 0000.0001)  cg2d: iter=    86 ; resid.=  1.60171342516058E-08
(PID.TID 0000.0001)  cg2d: iter=    87 ; resid.=  1.35981181073621E-08
(PID.TID 0000.0001)  cg2d: iter=    88 ; resid.=  1.10520129103594E-08
(PID.TID 0000.0001)  cg2d: iter=    89 ; resid.=  9.17331456258653E-09
(PID.TID 0000.0001)  cg2d: iter=    90 ; resid.=  7.32292505845757E-09
(PID.TID 0000.0001)  cg2d: iter=    91 ; resid.=  5.47341760186485E-09
(PID.TID 0000.0001)  cg2d: iter=    92 ; resid.=  4.06444452310443E-09
(PID.TID 0000.0001)  cg2d: iter=    93 ; resid.=  3.23616238029899E-09
(PID.TID 0000.0001)  cg2d: iter=    94 ; resid.=  2.56121600225620E-09
(PID.TID 0000.0001)  cg2d: iter=    95 ; resid.=  2.15712854796092E-09
(PID.TID 0000.0001)  cg2d: iter=    96 ; resid.=  1.67458411390075E-09
(PID.TID 0000.0001)  cg2d: iter=    97 ; resid.=  1.26689577583613E-09
(PID.TID 0000.0001)  cg2d: iter=    98 ; resid.=  9.16706132878495E-10
(PID.TID 0000.0001)  cg2d: iter=    99 ; resid.=  7.65339488974937E-10
(PID.TID 0000.0001)  cg2d: iter=   100 ; resid.=  6.50888411120096E-10
(PID.TID 0000.0001)  cg2d: iter=   101 ; resid.=  5.42521589780724E-10
(PID.TID 0000.0001)  cg2d: iter=   102 ; resid.=  4.31390893883137E-10
(PID.TID 0000.0001)  cg2d: iter=   103 ; resid.=  3.43034837899355E-10
(PID.TID 0000.0001)  cg2d: iter=   104 ; resid.=  2.93767907875557E-10
(PID.TID 0000.0001)  cg2d: iter=   105 ; resid.=  2.49075080805090E-10
(PID.TID 0000.0001)  cg2d: iter=   106 ; resid.=  2.22318891794824E-10
(PID.TID 0000.0001)  cg2d: iter=   107 ; resid.=  1.87761740084357E-10
(PID.TID 0000.0001)  cg2d: iter=   108 ; resid.=  1.48251419901948E-10
(PID.TID 0000.0001)  cg2d: iter=   109 ; resid.=  1.11090415778014E-10
(PID.TID 0000.0001)  cg2d: iter=   110 ; resid.=  8.61528397432569E-11
(PID.TID 0000.0001)  cg2d: iter=   111 ; resid.=  6.93166148060649E-11
(PID.TID 0000.0001)  cg2d: iter=   112 ; resid.=  5.13398879368700E-11
(PID.TID 0000.0001)  cg2d: iter=   113 ; resid.=  3.50502110649179E-11
(PID.TID 0000.0001)  cg2d: iter=   114 ; resid.=  2.54680191732252E-11
(PID.TID 0000.0001)  cg2d: iter=   115 ; resid.=  1.91083325349065E-11
(PID.TID 0000.0001)  cg2d: iter=   116 ; resid.=  1.35843273581642E-11
(PID.TID 0000.0001)  cg2d: iter=   117 ; resid.=  1.06919865102547E-11
(PID.TID 0000.0001)  cg2d: iter=   118 ; resid.=  8.93363697113701E-12
(PID.TID 0000.0001)  cg2d: iter=   119 ; resid.=  7.12526571009528E-12
(PID.TID 0000.0001)  cg2d: iter=   120 ; resid.=  5.12699737153302E-12
(PID.TID 0000.0001)  cg2d: iter=   121 ; resid.=  4.12371881483235E-12
(PID.TID 0000.0001)  cg2d: iter=   122 ; resid.=  3.30353780970282E-12
(PID.TID 0000.0001)  cg2d: iter=   123 ; resid.=  2.45060787582713E-12
(PID.TID 0000.0001)  cg2d: iter=   124 ; resid.=  1.71086585281153E-12
(PID.TID 0000.0001)  cg2d: iter=   125 ; resid.=  1.23412309040237E-12
(PID.TID 0000.0001)  cg2d: iter=   126 ; resid.=  9.31163191574792E-13
(PID.TID 0000.0001)  cg2d: iter=   127 ; resid.=  5.97722460261868E-13
(PID.TID 0000.0001)  cg2d: iter=   128 ; resid.=  3.98040031209232E-13
(PID.TID 0000.0001)  cg2d: iter=   129 ; resid.=  2.75972426661582E-13
(PID.TID 0000.0001)  cg2d: iter=   130 ; resid.=  2.01192223883809E-13
(PID.TID 0000.0001)  cg2d: iter=   131 ; resid.=  1.41431864811049E-13
(PID.TID 0000.0001)  cg2d: iter=   132 ; resid.=  9.95197639577026E-14
DEBUG_STATS_RL:    cg2d_x (SOLVE_FOR_PRESSURE)  min= -1.68488208975153E+01
DEBUG_STATS_RL:    cg2d_x (SOLVE_FOR_PRESSURE)  max=  8.52585608225334E+00
DEBUG_STATS_RL:    cg2d_x (SOLVE_FOR_PRESSURE) mean= -1.66443904936922E+00
DEBUG_STATS_RL:    cg2d_x (SOLVE_FOR_PRESSURE) S.D.=  6.60035719615942E+00
(PID.TID 0000.0001)      cg2d_init_res =   4.41289874599224E-01
(PID.TID 0000.0001)      cg2d_iters(min,last) =      -1     132
(PID.TID 0000.0001)      cg2d_last_res =   9.95197639577026E-14
(PID.TID 0000.0001) // =======================================================
(PID.TID 0000.0001) // Begin MONITOR dynamic field statistics
(PID.TID 0000.0001) // =======================================================
(PID.TID 0000.0001) %MON time_tsnumber                =                    37
(PID.TID 0000.0001) %MON time_secondsf                =   3.1968000000000E+06
(PID.TID 0000.0001) %MON dynstat_eta_max              =   8.6909847933270E-01
(PID.TID 0000.0001) %MON dynstat_eta_min              =  -1.7175148723258E+00
(PID.TID 0000.0001) %MON dynstat_eta_mean             =  -2.7659631974138E-03
(PID.TID 0000.0001) %MON dynstat_eta_sd               =   5.9440332811852E-01
(PID.TID 0000.0001) %MON dynstat_eta_del2             =   2.1707338697046E-03
(PID.TID 0000.0001) %MON dynstat_uvel_max             =   1.3280602784078E-01
(PID.TID 0000.0001) %MON dynstat_uvel_min             =  -1.6423469113346E-01
(PID.TID 0000.0001) %MON dynstat_uvel_mean            =   1.7261102830381E-03
(PID.TID 0000.0001) %MON dynstat_uvel_sd              =   1.4235983712605E-02
(PID.TID 0000.0001) %MON dynstat_uvel_del2            =   8.2881853327372E-05
(PID.TID 0000.0001) %MON dynstat_vvel_max             =   1.1034542389719E-01
(PID.TID 0000.0001) %MON dynstat_vvel_min             =  -1.1148708611161E-01
(PID.TID 0000.0001) %MON dynstat_vvel_mean            =  -7.3048697675353E-05
(PID.TID 0000.0001) %MON dynstat_vvel_sd              =   9.2434267836228E-03
(PID.TID 0000.0001) %MON dynstat_vvel_del2            =   8.0088195785937E-05
(PID.TID 0000.0001) %MON dynstat_wvel_max             =   8.3589011448083E-05
(PID.TID 0000.0001) %MON dynstat_wvel_min             =  -1.0788452601957E-04
(PID.TID 0000.0001) %MON dynstat_wvel_mean            =   1.3406631425274E-23
(PID.TID 0000.0001) %MON dynstat_wvel_sd              =   1.4824008525530E-05
(PID.TID 0000.0001) %MON dynstat_wvel_del2            =   1.6256343342242E-07
(PID.TID 0000.0001) %MON dynstat_theta_max            =   3.0124360559772E+01
(PID.TID 0000.0001) %MON dynstat_theta_min            =  -2.0025800623784E+00
(PID.TID 0000.0001) %MON dynstat_theta_mean           =   3.6316454308021E+00
(PID.TID 0000.0001) %MON dynstat_theta_sd             =   4.4185592763695E+00
(PID.TID 0000.0001) %MON dynstat_theta_del2           =   4.7696004276043E-03
(PID.TID 0000.0001) %MON dynstat_salt_max             =   3.7465342727259E+01
(PID.TID 0000.0001) %MON dynstat_salt_min             =   2.9829739148142E+01
(PID.TID 0000.0001) %MON dynstat_salt_mean            =   3.4727990149262E+01
(PID.TID 0000.0001) %MON dynstat_salt_sd              =   2.9630976893722E-01
(PID.TID 0000.0001) %MON dynstat_salt_del2            =   9.8814578084059E-04
(PID.TID 0000.0001) %MON dynstat_sst_max              =   3.0124360559772E+01
(PID.TID 0000.0001) %MON dynstat_sst_min              =  -2.0025800623784E+00
(PID.TID 0000.0001) %MON dynstat_sst_mean             =   1.8811714100177E+01
(PID.TID 0000.0001) %MON dynstat_sst_sd               =   9.0251199624785E+00
(PID.TID 0000.0001) %MON dynstat_sst_del2             =   2.6822228878661E-02
(PID.TID 0000.0001) %MON dynstat_sss_max              =   3.7441212731294E+01
(PID.TID 0000.0001) %MON dynstat_sss_min              =   2.9829739148142E+01
(PID.TID 0000.0001) %MON dynstat_sss_mean             =   3.4854334435089E+01
(PID.TID 0000.0001) %MON dynstat_sss_sd               =   9.7634873779380E-01
(PID.TID 0000.0001) %MON dynstat_sss_del2             =   7.8539588987425E-03
(PID.TID 0000.0001) %MON forcing_qnet_max             =   3.7191279602051E+02
(PID.TID 0000.0001) %MON forcing_qnet_min             =  -1.7498964233398E+02
(PID.TID 0000.0001) %MON forcing_qnet_mean            =  -1.4729433485573E+01
(PID.TID 0000.0001) %MON forcing_qnet_sd              =   8.8124246964212E+01
(PID.TID 0000.0001) %MON forcing_qnet_del2            =   9.6017907876668E-01
(PID.TID 0000.0001) %MON forcing_qsw_max              =   0.0000000000000E+00
(PID.TID 0000.0001) %MON forcing_qsw_min              =   0.0000000000000E+00
(PID.TID 0000.0001) %MON forcing_qsw_mean             =   0.0000000000000E+00
(PID.TID 0000.0001) %MON forcing_qsw_sd               =   0.0000000000000E+00
(PID.TID 0000.0001) %MON forcing_qsw_del2             =   0.0000000000000E+00
(PID.TID 0000.0001) %MON forcing_empmr_max            =   7.5578354596928E-05
(PID.TID 0000.0001) %MON forcing_empmr_min            =  -7.7828485700593E-05
(PID.TID 0000.0001) %MON forcing_empmr_mean           =   9.3726740456976E-07
(PID.TID 0000.0001) %MON forcing_empmr_sd             =   2.8054368786233E-05
(PID.TID 0000.0001) %MON forcing_empmr_del2           =   3.5379338060375E-07
(PID.TID 0000.0001) %MON forcing_fu_max               =   2.9215110242367E-01
(PID.TID 0000.0001) %MON forcing_fu_min               =  -2.0079303681850E-01
(PID.TID 0000.0001) %MON forcing_fu_mean              =   1.7142039677415E-02
(PID.TID 0000.0001) %MON forcing_fu_sd                =   9.0801562846002E-02
(PID.TID 0000.0001) %MON forcing_fu_del2              =   6.8477442505628E-04
(PID.TID 0000.0001) %MON forcing_fv_max               =   1.8260629773140E-01
(PID.TID 0000.0001) %MON forcing_fv_min               =  -1.7113216519356E-01
(PID.TID 0000.0001) %MON forcing_fv_mean              =  -6.6293767805238E-03
(PID.TID 0000.0001) %MON forcing_fv_sd                =   4.4536887248365E-02
(PID.TID 0000.0001) %MON forcing_fv_del2              =   4.8427363307602E-04
(PID.TID 0000.0001) %MON trAdv_CFL_u_max              =   4.1576207388299E-02
(PID.TID 0000.0001) %MON trAdv_CFL_v_max              =   2.1875854436882E-02
(PID.TID 0000.0001) %MON trAdv_CFL_w_max              =   4.2645971053583E-02
(PID.TID 0000.0001) %MON advcfl_uvel_max              =   4.3897122556613E-02
(PID.TID 0000.0001) %MON advcfl_vvel_max              =   2.1660152793594E-02
(PID.TID 0000.0001) %MON advcfl_wvel_max              =   3.4105037896778E-02
(PID.TID 0000.0001) %MON advcfl_W_hf_max              =   4.0195223235489E-02
(PID.TID 0000.0001) %MON pe_b_mean                    =   4.5211932333328E-04
(PID.TID 0000.0001) %MON ke_max                       =   1.5297435604506E-02
(PID.TID 0000.0001) %MON ke_mean                      =   1.3178716413256E-04
(PID.TID 0000.0001) %MON ke_vol                       =   1.3226782436723E+18
(PID.TID 0000.0001) %MON vort_r_min                   =  -4.0919230255656E-07
(PID.TID 0000.0001) %MON vort_r_max                   =   4.4584558243105E-07
(PID.TID 0000.0001) %MON vort_a_mean                  =  -2.5274807106091E-05
(PID.TID 0000.0001) %MON vort_a_sd                    =   7.3604576442140E-05
(PID.TID 0000.0001) %MON vort_p_mean                  =  -3.1845655432365E-05
(PID.TID 0000.0001) %MON vort_p_sd                    =   1.3162525742394E-04
(PID.TID 0000.0001) %MON surfExpan_theta_mean         =   4.2860844281985E-07
(PID.TID 0000.0001) %MON surfExpan_salt_mean          =  -7.5669782492151E-08
(PID.TID 0000.0001) // =======================================================
(PID.TID 0000.0001) // End MONITOR dynamic field statistics
(PID.TID 0000.0001) // =======================================================
 EXTERNAL_FIELDS_LOAD,        37 : iP,iLd,i0,i1=    1    2    1    2 ; Wght=  0.2666666667  0.7333333333
 EXTERNAL_FIELDS_LOAD: (fu0,1),fu,fv= -3.5633E-02 -1.4435E-02 -2.0088E-02 -2.8201E-02
 EXTERNAL_FIELDS_LOAD: SST,SSS,Q,E-P= -1.3445E-01  3.4499E+01  2.4722E+02  9.2464E-06
DEBUG_STATS_RL:          Uvel (THERMODYNAMICS)  min= -1.64234691133464E-01
DEBUG_STATS_RL:          Uvel (THERMODYNAMICS)  max=  1.32806027840781E-01
DEBUG_STATS_RL:          Uvel (THERMODYNAMICS) mean=  3.12368773410447E-03
DEBUG_STATS_RL:          Uvel (THERMODYNAMICS) S.D.=  2.23375784090651E-02
DEBUG_STATS_RL:          Vvel (THERMODYNAMICS)  min= -1.11487086111615E-01
DEBUG_STATS_RL:          Vvel (THERMODYNAMICS)  max=  1.10345423897194E-01
DEBUG_STATS_RL:          Vvel (THERMODYNAMICS) mean= -3.01576670792559E-04
DEBUG_STATS_RL:          Vvel (THERMODYNAMICS) S.D.=  1.38635259316154E-02
DEBUG_STATS_RL:          Wvel (THERMODYNAMICS)  min= -1.07884526019574E-04
DEBUG_STATS_RL:          Wvel (THERMODYNAMICS)  max=  8.35890114480825E-05
DEBUG_STATS_RL:          Wvel (THERMODYNAMICS) mean= -3.78920976502698E-07
DEBUG_STATS_RL:          Wvel (THERMODYNAMICS) S.D.=  1.31910238697430E-05
DEBUG_STATS_RL:         Theta (THERMODYNAMICS)  min= -2.00161084339461E+00
DEBUG_STATS_RL:         Theta (THERMODYNAMICS)  max=  3.01481197214169E+01
DEBUG_STATS_RL:         Theta (THERMODYNAMICS) mean=  3.22262203912390E+00
DEBUG_STATS_RL:         Theta (THERMODYNAMICS) S.D.=  5.86221000767158E+00
DEBUG_STATS_RL:          Salt (THERMODYNAMICS)  min=  9.99999999999998E-03
DEBUG_STATS_RL:          Salt (THERMODYNAMICS)  max=  3.74655978913733E+01
DEBUG_STATS_RL:          Salt (THERMODYNAMICS) mean=  1.88548265231276E+01
DEBUG_STATS_RL:          Salt (THERMODYNAMICS) S.D.=  1.73003472222120E+01
DEBUG_STATS_RL:         GtNm1 (THERMODYNAMICS)  min= -3.23644743045620E-06
DEBUG_STATS_RL:         GtNm1 (THERMODYNAMICS)  max=  2.42294678983632E-06
DEBUG_STATS_RL:         GtNm1 (THERMODYNAMICS) mean=  1.26365868268841E-08
DEBUG_STATS_RL:         GtNm1 (THERMODYNAMICS) S.D.=  2.03266640746197E-07
DEBUG_STATS_RL:         GsNm1 (THERMODYNAMICS)  min= -4.34516108222468E-07
DEBUG_STATS_RL:         GsNm1 (THERMODYNAMICS)  max=  3.06141106202850E-07
DEBUG_STATS_RL:         GsNm1 (THERMODYNAMICS) mean= -1.11253080275657E-10
DEBUG_STATS_RL:         GsNm1 (THERMODYNAMICS) S.D.=  1.77450702968042E-08
DEBUG_STATS_RL:                EtaN (DYNAMICS)  min= -1.71751487232582E+00
DEBUG_STATS_RL:                EtaN (DYNAMICS)  max=  8.69098479332701E-01
DEBUG_STATS_RL:                EtaN (DYNAMICS) mean= -1.69667589130401E-01
DEBUG_STATS_RL:                EtaN (DYNAMICS) S.D.=  6.72819286050909E-01
DEBUG_STATS_RL:                Uvel (DYNAMICS)  min= -1.64234691133464E-01
DEBUG_STATS_RL:                Uvel (DYNAMICS)  max=  1.32806027840781E-01
DEBUG_STATS_RL:                Uvel (DYNAMICS) mean=  3.12368773410447E-03
DEBUG_STATS_RL:                Uvel (DYNAMICS) S.D.=  2.23375784090651E-02
DEBUG_STATS_RL:                Vvel (DYNAMICS)  min= -1.11487086111615E-01
DEBUG_STATS_RL:                Vvel (DYNAMICS)  max=  1.10345423897194E-01
DEBUG_STATS_RL:                Vvel (DYNAMICS) mean= -3.01576670792559E-04
DEBUG_STATS_RL:                Vvel (DYNAMICS) S.D.=  1.38635259316154E-02
DEBUG_STATS_RL:                Wvel (DYNAMICS)  min= -1.07884526019574E-04
DEBUG_STATS_RL:                Wvel (DYNAMICS)  max=  8.35890114480825E-05
DEBUG_STATS_RL:                Wvel (DYNAMICS) mean= -3.78920976502698E-07
DEBUG_STATS_RL:                Wvel (DYNAMICS) S.D.=  1.31910238697430E-05
DEBUG_STATS_RL:               Theta (DYNAMICS)  min= -2.00161084339461E+00
DEBUG_STATS_RL:               Theta (DYNAMICS)  max=  3.01481197214169E+01
DEBUG_STATS_RL:               Theta (DYNAMICS) mean=  3.22262203912390E+00
DEBUG_STATS_RL:               Theta (DYNAMICS) S.D.=  5.86221000767158E+00
DEBUG_STATS_RL:                Salt (DYNAMICS)  min=  9.99999999999998E-03
DEBUG_STATS_RL:                Salt (DYNAMICS)  max=  3.74655978913733E+01
DEBUG_STATS_RL:                Salt (DYNAMICS) mean=  1.88548265231276E+01
DEBUG_STATS_RL:                Salt (DYNAMICS) S.D.=  1.73003472222120E+01
DEBUG_STATS_RL:                  Gu (DYNAMICS)  min= -1.62172514756887E-01
DEBUG_STATS_RL:                  Gu (DYNAMICS)  max=  1.35394323751410E-01
DEBUG_STATS_RL:                  Gu (DYNAMICS) mean=  3.06492727195025E-03
DEBUG_STATS_RL:                  Gu (DYNAMICS) S.D.=  2.32233023294018E-02
DEBUG_STATS_RL:                  Gv (DYNAMICS)  min= -1.07971577278967E-01
DEBUG_STATS_RL:                  Gv (DYNAMICS)  max=  1.19265719682992E-01
DEBUG_STATS_RL:                  Gv (DYNAMICS) mean=  2.06591560887217E-03
DEBUG_STATS_RL:                  Gv (DYNAMICS) S.D.=  1.39706489059159E-02
DEBUG_STATS_RL:               GuNm1 (DYNAMICS)  min= -8.46082742888064E-06
DEBUG_STATS_RL:               GuNm1 (DYNAMICS)  max=  8.17121649562160E-06
DEBUG_STATS_RL:               GuNm1 (DYNAMICS) mean= -1.98796222005099E-08
DEBUG_STATS_RL:               GuNm1 (DYNAMICS) S.D.=  1.17630743858880E-06
DEBUG_STATS_RL:               GvNm1 (DYNAMICS)  min= -1.04679655969107E-05
DEBUG_STATS_RL:               GvNm1 (DYNAMICS)  max=  1.63794168927781E-05
DEBUG_STATS_RL:               GvNm1 (DYNAMICS) mean=  7.51074788785425E-07
DEBUG_STATS_RL:               GvNm1 (DYNAMICS) S.D.=  2.61776771416317E-06
DEBUG_STATS_RL:               GtNm1 (DYNAMICS)  min= -3.23644743045620E-06
DEBUG_STATS_RL:               GtNm1 (DYNAMICS)  max=  2.42294678983632E-06
DEBUG_STATS_RL:               GtNm1 (DYNAMICS) mean=  1.26365868268841E-08
DEBUG_STATS_RL:               GtNm1 (DYNAMICS) S.D.=  2.03266640746197E-07
DEBUG_STATS_RL:               GsNm1 (DYNAMICS)  min= -4.34516108222468E-07
DEBUG_STATS_RL:               GsNm1 (DYNAMICS)  max=  3.06141106202850E-07
DEBUG_STATS_RL:               GsNm1 (DYNAMICS) mean= -1.11253080275657E-10
DEBUG_STATS_RL:               GsNm1 (DYNAMICS) S.D.=  1.77450702968042E-08
DEBUG_STATS_RL:    cg2d_b (SOLVE_FOR_PRESSURE)  min= -2.00303642406713E+04
DEBUG_STATS_RL:    cg2d_b (SOLVE_FOR_PRESSURE)  max=  1.69264998085372E+04
DEBUG_STATS_RL:    cg2d_b (SOLVE_FOR_PRESSURE) mean=  2.72601785405706E+00
DEBUG_STATS_RL:    cg2d_b (SOLVE_FOR_PRESSURE) S.D.=  3.70149306058719E+03
 cg2d: Sum(rhs),rhsMax =   3.15058241393635E-01  1.31564795313952E+00
(PID.TID 0000.0001)  cg2d: iter=     1 ; resid.=  1.57373911164513E-01
(PID.TID 0000.0001)  cg2d: iter=     2 ; resid.=  1.27139465858640E-01
(PID.TID 0000.0001)  cg2d: iter=     3 ; resid.=  1.26213854616295E-01
(PID.TID 0000.0001)  cg2d: iter=     4 ; resid.=  1.13079101131809E-01
(PID.TID 0000.0001)  cg2d: iter=     5 ; resid.=  1.05947248614125E-01
(PID.TID 0000.0001)  cg2d: iter=     6 ; resid.=  8.94718395001424E-02
(PID.TID 0000.0001)  cg2d: iter=     7 ; resid.=  7.62037311778678E-02
(PID.TID 0000.0001)  cg2d: iter=     8 ; resid.=  6.02254348281041E-02
(PID.TID 0000.0001)  cg2d: iter=     9 ; resid.=  4.93088184514046E-02
(PID.TID 0000.0001)  cg2d: iter=    10 ; resid.=  3.97516364209790E-02
(PID.TID 0000.0001)  cg2d: iter=    11 ; resid.=  3.56827704306848E-02
(PID.TID 0000.0001)  cg2d: iter=    12 ; resid.=  3.03101114023873E-02
(PID.TID 0000.0001)  cg2d: iter=    13 ; resid.=  2.42366084608885E-02
(PID.TID 0000.0001)  cg2d: iter=    14 ; resid.=  2.04798658993212E-02
(PID.TID 0000.0001)  cg2d: iter=    15 ; resid.=  1.63486356213552E-02
(PID.TID 0000.0001)  cg2d: iter=    16 ; resid.=  1.38796322719888E-02
(PID.TID 0000.0001)  cg2d: iter=    17 ; resid.=  1.18368606093968E-02
(PID.TID 0000.0001)  cg2d: iter=    18 ; resid.=  1.01118496690452E-02
(PID.TID 0000.0001)  cg2d: iter=    19 ; resid.=  8.11830628341502E-03
(PID.TID 0000.0001)  cg2d: iter=    20 ; resid.=  6.25487851815003E-03
(PID.TID 0000.0001)  cg2d: iter=    21 ; resid.=  4.95337657498123E-03
(PID.TID 0000.0001)  cg2d: iter=    22 ; resid.=  4.25518318504891E-03
(PID.TID 0000.0001)  cg2d: iter=    23 ; resid.=  3.70053558205484E-03
(PID.TID 0000.0001)  cg2d: iter=    24 ; resid.=  3.36232158801581E-03
(PID.TID 0000.0001)  cg2d: iter=    25 ; resid.=  2.65335324327061E-03
(PID.TID 0000.0001)  cg2d: iter=    26 ; resid.=  2.11856560352246E-03
(PID.TID 0000.0001)  cg2d: iter=    27 ; resid.=  1.68022466176783E-03
(PID.TID 0000.0001)  cg2d: iter=    28 ; resid.=  1.39237083747009E-03
(PID.TID 0000.0001)  cg2d: iter=    29 ; resid.=  1.14809766305132E-03
(PID.TID 0000.0001)  cg2d: iter=    30 ; resid.=  9.81511612572731E-04
(PID.TID 0000.0001)  cg2d: iter=    31 ; resid.=  7.97667415956334E-04
(PID.TID 0000.0001)  cg2d: iter=    32 ; resid.=  6.00306984464855E-04
(PID.TID 0000.0001)  cg2d: iter=    33 ; resid.=  4.88384168222791E-04
(PID.TID 0000.0001)  cg2d: iter=    34 ; resid.=  4.25649668383714E-04
(PID.TID 0000.0001)  cg2d: iter=    35 ; resid.=  3.48950283393537E-04
(PID.TID 0000.0001)  cg2d: iter=    36 ; resid.=  2.91745542406242E-04
(PID.TID 0000.0001)  cg2d: iter=    37 ; resid.=  2.37923457827486E-04
(PID.TID 0000.0001)  cg2d: iter=    38 ; resid.=  2.15005443369754E-04
(PID.TID 0000.0001)  cg2d: iter=    39 ; resid.=  1.93518418290533E-04
(PID.TID 0000.0001)  cg2d: iter=    40 ; resid.=  1.59846284531724E-04
(PID.TID 0000.0001)  cg2d: iter=    41 ; resid.=  1.38932095200373E-04
(PID.TID 0000.0001)  cg2d: iter=    42 ; resid.=  1.22413853153734E-04
(PID.TID 0000.0001)  cg2d: iter=    43 ; resid.=  1.04923029460889E-04
(PID.TID 0000.0001)  cg2d: iter=    44 ; resid.=  8.69666465610960E-05
(PID.TID 0000.0001)  cg2d: iter=    45 ; resid.=  6.79597620486114E-05
(PID.TID 0000.0001)  cg2d: iter=    46 ; resid.=  5.23330505315368E-05
(PID.TID 0000.0001)  cg2d: iter=    47 ; resid.=  4.46423785895857E-05
(PID.TID 0000.0001)  cg2d: iter=    48 ; resid.=  3.81452370931876E-05
(PID.TID 0000.0001)  cg2d: iter=    49 ; resid.=  3.15716662041339E-05
(PID.TID 0000.0001)  cg2d: iter=    50 ; resid.=  2.79750535970842E-05
(PID.TID 0000.0001)  cg2d: iter=    51 ; resid.=  2.44766333988297E-05
(PID.TID 0000.0001)  cg2d: iter=    52 ; resid.=  1.96361440892522E-05
(PID.TID 0000.0001)  cg2d: iter=    53 ; resid.=  1.58557967654875E-05
(PID.TID 0000.0001)  cg2d: iter=    54 ; resid.=  1.35857417284826E-05
(PID.TID 0000.0001)  cg2d: iter=    55 ; resid.=  1.16809990447495E-05
(PID.TID 0000.0001)  cg2d: iter=    56 ; resid.=  9.49687954448486E-06
(PID.TID 0000.0001)  cg2d: iter=    57 ; resid.=  7.62347048536403E-06
(PID.TID 0000.0001)  cg2d: iter=    58 ; resid.=  6.31628136393920E-06
(PID.TID 0000.0001)  cg2d: iter=    59 ; resid.=  5.51176206602863E-06
(PID.TID 0000.0001)  cg2d: iter=    60 ; resid.=  4.52781851911288E-06
(PID.TID 0000.0001)  cg2d: iter=    61 ; resid.=  3.84833983468891E-06
(PID.TID 0000.0001)  cg2d: iter=    62 ; resid.=  3.29618980332138E-06
(PID.TID 0000.0001)  cg2d: iter=    63 ; resid.=  2.75959721882217E-06
(PID.TID 0000.0001)  cg2d: iter=    64 ; resid.=  2.25999466882132E-06
(PID.TID 0000.0001)  cg2d: iter=    65 ; resid.=  1.80913017133362E-06
(PID.TID 0000.0001)  cg2d: iter=    66 ; resid.=  1.59818881420187E-06
(PID.TID 0000.0001)  cg2d: iter=    67 ; resid.=  1.32253502876999E-06
(PID.TID 0000.0001)  cg2d: iter=    68 ; resid.=  1.11279659879114E-06
(PID.TID 0000.0001)  cg2d: iter=    69 ; resid.=  8.20095316122255E-07
(PID.TID 0000.0001)  cg2d: iter=    70 ; resid.=  6.21058359904864E-07
(PID.TID 0000.0001)  cg2d: iter=    71 ; resid.=  5.32210004262081E-07
(PID.TID 0000.0001)  cg2d: iter=    72 ; resid.=  4.76365637193063E-07
(PID.TID 0000.0001)  cg2d: iter=    73 ; resid.=  4.40251114812582E-07
(PID.TID 0000.0001)  cg2d: iter=    74 ; resid.=  3.75909720665545E-07
(PID.TID 0000.0001)  cg2d: iter=    75 ; resid.=  3.07932597331891E-07
(PID.TID 0000.0001)  cg2d: iter=    76 ; resid.=  2.52799397710393E-07
(PID.TID 0000.0001)  cg2d: iter=    77 ; resid.=  2.10264473048982E-07
(PID.TID 0000.0001)  cg2d: iter=    78 ; resid.=  1.65443209651169E-07
(PID.TID 0000.0001)  cg2d: iter=    79 ; resid.=  1.32963641235677E-07
(PID.TID 0000.0001)  cg2d: iter=    80 ; resid.=  9.87368624256828E-08
(PID.TID 0000.0001)  cg2d: iter=    81 ; resid.=  7.26613034752755E-08
(PID.TID 0000.0001)  cg2d: iter=    82 ; resid.=  5.68737740147031E-08
(PID.TID 0000.0001)  cg2d: iter=    83 ; resid.=  4.14846275801775E-08
(PID.TID 0000.0001)  cg2d: iter=    84 ; resid.=  3.10098492338563E-08
(PID.TID 0000.0001)  cg2d: iter=    85 ; resid.=  2.29353083053422E-08
(PID.TID 0000.0001)  cg2d: iter=    86 ; resid.=  1.73227422082089E-08
(PID.TID 0000.0001)  cg2d: iter=    87 ; resid.=  1.46894364624964E-08
(PID.TID 0000.0001)  cg2d: iter=    88 ; resid.=  1.18185841489401E-08
(PID.TID 0000.0001)  cg2d: iter=    89 ; resid.=  9.71166442199188E-09
(PID.TID 0000.0001)  cg2d: iter=    90 ; resid.=  7.55622839195261E-09
(PID.TID 0000.0001)  cg2d: iter=    91 ; resid.=  5.53427889287955E-09
(PID.TID 0000.0001)  cg2d: iter=    92 ; resid.=  4.06294128328916E-09
(PID.TID 0000.0001)  cg2d: iter=    93 ; resid.=  3.14096985603869E-09
(PID.TID 0000.0001)  cg2d: iter=    94 ; resid.=  2.39617847666239E-09
(PID.TID 0000.0001)  cg2d: iter=    95 ; resid.=  1.93640155344120E-09
(PID.TID 0000.0001)  cg2d: iter=    96 ; resid.=  1.46395794156562E-09
(PID.TID 0000.0001)  cg2d: iter=    97 ; resid.=  1.07770089431908E-09
(PID.TID 0000.0001)  cg2d: iter=    98 ; resid.=  7.44164829299367E-10
(PID.TID 0000.0001)  cg2d: iter=    99 ; resid.=  5.82052870297454E-10
(PID.TID 0000.0001)  cg2d: iter=   100 ; resid.=  4.78247419953734E-10
(PID.TID 0000.0001)  cg2d: iter=   101 ; resid.=  3.77254184020958E-10
(PID.TID 0000.0001)  cg2d: iter=   102 ; resid.=  2.77727192642006E-10
(PID.TID 0000.0001)  cg2d: iter=   103 ; resid.=  2.01598949126333E-10
(PID.TID 0000.0001)  cg2d: iter=   104 ; resid.=  1.54984207230421E-10
(PID.TID 0000.0001)  cg2d: iter=   105 ; resid.=  1.16888325552781E-10
(PID.TID 0000.0001)  cg2d: iter=   106 ; resid.=  9.25616358718097E-11
(PID.TID 0000.0001)  cg2d: iter=   107 ; resid.=  7.47382617394962E-11
(PID.TID 0000.0001)  cg2d: iter=   108 ; resid.=  5.93940921047061E-11
(PID.TID 0000.0001)  cg2d: iter=   109 ; resid.=  4.61963441378380E-11
(PID.TID 0000.0001)  cg2d: iter=   110 ; resid.=  3.74125222019294E-11
(PID.TID 0000.0001)  cg2d: iter=   111 ; resid.=  3.37403532421200E-11
(PID.TID 0000.0001)  cg2d: iter=   112 ; resid.=  2.84574145794852E-11
(PID.TID 0000.0001)  cg2d: iter=   113 ; resid.=  2.19870904786732E-11
(PID.TID 0000.0001)  cg2d: iter=   114 ; resid.=  1.76420581025850E-11
(PID.TID 0000.0001)  cg2d: iter=   115 ; resid.=  1.46929772890064E-11
(PID.TID 0000.0001)  cg2d: iter=   116 ; resid.=  1.14836029688788E-11
(PID.TID 0000.0001)  cg2d: iter=   117 ; resid.=  9.72235060272151E-12
(PID.TID 0000.0001)  cg2d: iter=   118 ; resid.=  8.66609541729769E-12
(PID.TID 0000.0001)  cg2d: iter=   119 ; resid.=  7.33712761878139E-12
(PID.TID 0000.0001)  cg2d: iter=   120 ; resid.=  5.52189903901772E-12
(PID.TID 0000.0001)  cg2d: iter=   121 ; resid.=  4.54598263169203E-12
(PID.TID 0000.0001)  cg2d: iter=   122 ; resid.=  3.71671211674190E-12
(PID.TID 0000.0001)  cg2d: iter=   123 ; resid.=  2.72671939726870E-12
(PID.TID 0000.0001)  cg2d: iter=   124 ; resid.=  1.85329868204939E-12
(PID.TID 0000.0001)  cg2d: iter=   125 ; resid.=  1.28954207526746E-12
(PID.TID 0000.0001)  cg2d: iter=   126 ; resid.=  9.62062945387300E-13
(PID.TID 0000.0001)  cg2d: iter=   127 ; resid.=  6.30033857754821E-13
(PID.TID 0000.0001)  cg2d: iter=   128 ; resid.=  4.26706975805700E-13
(PID.TID 0000.0001)  cg2d: iter=   129 ; resid.=  3.02818906380328E-13
(PID.TID 0000.0001)  cg2d: iter=   130 ; resid.=  2.29777901493393E-13
(PID.TID 0000.0001)  cg2d: iter=   131 ; resid.=  1.66555213078873E-13
(PID.TID 0000.0001)  cg2d: iter=   132 ; resid.=  1.21904764370747E-13
(PID.TID 0000.0001)  cg2d: iter=   133 ; resid.=  9.08057491676020E-14
DEBUG_STATS_RL:    cg2d_x (SOLVE_FOR_PRESSURE)  min= -1.68274758954346E+01
DEBUG_STATS_RL:    cg2d_x (SOLVE_FOR_PRESSURE)  max=  8.73024267522103E+00
DEBUG_STATS_RL:    cg2d_x (SOLVE_FOR_PRESSURE) mean= -1.68498151596773E+00
DEBUG_STATS_RL:    cg2d_x (SOLVE_FOR_PRESSURE) S.D.=  6.68365747052640E+00
(PID.TID 0000.0001)      cg2d_init_res =   4.31286691914499E-01
(PID.TID 0000.0001)      cg2d_iters(min,last) =      -1     133
(PID.TID 0000.0001)      cg2d_last_res =   9.08057491676020E-14
(PID.TID 0000.0001) // =======================================================
(PID.TID 0000.0001) // Begin MONITOR dynamic field statistics
(PID.TID 0000.0001) // =======================================================
(PID.TID 0000.0001) %MON time_tsnumber                =                    38
(PID.TID 0000.0001) %MON time_secondsf                =   3.2832000000000E+06
(PID.TID 0000.0001) %MON dynstat_eta_max              =   8.8993299441607E-01
(PID.TID 0000.0001) %MON dynstat_eta_min              =  -1.7153390311350E+00
(PID.TID 0000.0001) %MON dynstat_eta_mean             =  -2.8442616156533E-03
(PID.TID 0000.0001) %MON dynstat_eta_sd               =   6.0296886139261E-01
(PID.TID 0000.0001) %MON dynstat_eta_del2             =   2.1721058197142E-03
(PID.TID 0000.0001) %MON dynstat_uvel_max             =   1.3825946590115E-01
(PID.TID 0000.0001) %MON dynstat_uvel_min             =  -1.6136471549632E-01
(PID.TID 0000.0001) %MON dynstat_uvel_mean            =   1.6256981346554E-03
(PID.TID 0000.0001) %MON dynstat_uvel_sd              =   1.4470779495572E-02
(PID.TID 0000.0001) %MON dynstat_uvel_del2            =   8.4465059788368E-05
(PID.TID 0000.0001) %MON dynstat_vvel_max             =   1.1373857183366E-01
(PID.TID 0000.0001) %MON dynstat_vvel_min             =  -1.1255450100695E-01
(PID.TID 0000.0001) %MON dynstat_vvel_mean            =  -5.6701891507619E-05
(PID.TID 0000.0001) %MON dynstat_vvel_sd              =   9.3168360749082E-03
(PID.TID 0000.0001) %MON dynstat_vvel_del2            =   8.0309139767122E-05
(PID.TID 0000.0001) %MON dynstat_wvel_max             =   8.0898399918825E-05
(PID.TID 0000.0001) %MON dynstat_wvel_min             =  -1.1256604561383E-04
(PID.TID 0000.0001) %MON dynstat_wvel_mean            =   4.4772873468151E-23
(PID.TID 0000.0001) %MON dynstat_wvel_sd              =   1.4800520786863E-05
(PID.TID 0000.0001) %MON dynstat_wvel_del2            =   1.5891622644650E-07
(PID.TID 0000.0001) %MON dynstat_theta_max            =   3.0148119721417E+01
(PID.TID 0000.0001) %MON dynstat_theta_min            =  -2.0016108433946E+00
(PID.TID 0000.0001) %MON dynstat_theta_mean           =   3.6317178652307E+00
(PID.TID 0000.0001) %MON dynstat_theta_sd             =   4.4187487864353E+00
(PID.TID 0000.0001) %MON dynstat_theta_del2           =   4.7588949115915E-03
(PID.TID 0000.0001) %MON dynstat_salt_max             =   3.7465597891373E+01
(PID.TID 0000.0001) %MON dynstat_salt_min             =   2.9830091263390E+01
(PID.TID 0000.0001) %MON dynstat_salt_mean            =   3.4727992672402E+01
(PID.TID 0000.0001) %MON dynstat_salt_sd              =   2.9632133164786E-01
(PID.TID 0000.0001) %MON dynstat_salt_del2            =   9.8725628034551E-04
(PID.TID 0000.0001) %MON dynstat_sst_max              =   3.0148119721417E+01
(PID.TID 0000.0001) %MON dynstat_sst_min              =  -2.0016108433946E+00
(PID.TID 0000.0001) %MON dynstat_sst_mean             =   1.8822714985254E+01
(PID.TID 0000.0001) %MON dynstat_sst_sd               =   9.0213226397542E+00
(PID.TID 0000.0001) %MON dynstat_sst_del2             =   2.6852478072321E-02
(PID.TID 0000.0001) %MON dynstat_sss_max              =   3.7440788699193E+01
(PID.TID 0000.0001) %MON dynstat_sss_min              =   2.9830091263390E+01
(PID.TID 0000.0001) %MON dynstat_sss_mean             =   3.4854271579630E+01
(PID.TID 0000.0001) %MON dynstat_sss_sd               =   9.7647811301284E-01
(PID.TID 0000.0001) %MON dynstat_sss_del2             =   7.8540570554156E-03
(PID.TID 0000.0001) %MON forcing_qnet_max             =   3.6928591512044E+02
(PID.TID 0000.0001) %MON forcing_qnet_min             =  -1.7475012308757E+02
(PID.TID 0000.0001) %MON forcing_qnet_mean            =  -1.4644524318170E+01
(PID.TID 0000.0001) %MON forcing_qnet_sd              =   8.7147670189845E+01
(PID.TID 0000.0001) %MON forcing_qnet_del2            =   9.5844621620671E-01
(PID.TID 0000.0001) %MON forcing_qsw_max              =   0.0000000000000E+00
(PID.TID 0000.0001) %MON forcing_qsw_min              =   0.0000000000000E+00
(PID.TID 0000.0001) %MON forcing_qsw_mean             =   0.0000000000000E+00
(PID.TID 0000.0001) %MON forcing_qsw_sd               =   0.0000000000000E+00
(PID.TID 0000.0001) %MON forcing_qsw_del2             =   0.0000000000000E+00
(PID.TID 0000.0001) %MON forcing_empmr_max            =   7.5264264864927E-05
(PID.TID 0000.0001) %MON forcing_empmr_min            =  -7.7908129962149E-05
(PID.TID 0000.0001) %MON forcing_empmr_mean           =   9.3794980182971E-07
(PID.TID 0000.0001) %MON forcing_empmr_sd             =   2.8038849309164E-05
(PID.TID 0000.0001) %MON forcing_empmr_del2           =   3.5380115394232E-07
(PID.TID 0000.0001) %MON forcing_fu_max               =   2.9353826045990E-01
(PID.TID 0000.0001) %MON forcing_fu_min               =  -2.0245296061039E-01
(PID.TID 0000.0001) %MON forcing_fu_mean              =   1.7196339892884E-02
(PID.TID 0000.0001) %MON forcing_fu_sd                =   9.0980570230984E-02
(PID.TID 0000.0001) %MON forcing_fu_del2              =   6.8955771745794E-04
(PID.TID 0000.0001) %MON forcing_fv_max               =   1.8468924562136E-01
(PID.TID 0000.0001) %MON forcing_fv_min               =  -1.7430406411489E-01
(PID.TID 0000.0001) %MON forcing_fv_mean              =  -6.6946376872389E-03
(PID.TID 0000.0001) %MON forcing_fv_sd                =   4.4529984647436E-02
(PID.TID 0000.0001) %MON forcing_fv_del2              =   4.8899636453518E-04
(PID.TID 0000.0001) %MON trAdv_CFL_u_max              =   4.3906038376162E-02
(PID.TID 0000.0001) %MON trAdv_CFL_v_max              =   2.2459638995873E-02
(PID.TID 0000.0001) %MON trAdv_CFL_w_max              =   4.0195223235489E-02
(PID.TID 0000.0001) %MON advcfl_uvel_max              =   4.5699678079002E-02
(PID.TID 0000.0001) %MON advcfl_vvel_max              =   2.2097580359897E-02
(PID.TID 0000.0001) %MON advcfl_wvel_max              =   3.1339380170815E-02
(PID.TID 0000.0001) %MON advcfl_W_hf_max              =   3.6935698058461E-02
(PID.TID 0000.0001) %MON pe_b_mean                    =   4.6524384167262E-04
(PID.TID 0000.0001) %MON ke_max                       =   1.5207095633804E-02
(PID.TID 0000.0001) %MON ke_mean                      =   1.3530717774281E-04
(PID.TID 0000.0001) %MON ke_vol                       =   1.3226782436723E+18
(PID.TID 0000.0001) %MON vort_r_min                   =  -4.2352855677763E-07
(PID.TID 0000.0001) %MON vort_r_max                   =   4.4609919067911E-07
(PID.TID 0000.0001) %MON vort_a_mean                  =  -2.5274807016508E-05
(PID.TID 0000.0001) %MON vort_a_sd                    =   7.3604563954296E-05
(PID.TID 0000.0001) %MON vort_p_mean                  =  -3.1845655319492E-05
(PID.TID 0000.0001) %MON vort_p_sd                    =   1.3162500800617E-04
(PID.TID 0000.0001) %MON surfExpan_theta_mean         =   4.1275489401917E-07
(PID.TID 0000.0001) %MON surfExpan_salt_mean          =  -6.0718860689429E-08
(PID.TID 0000.0001) // =======================================================
(PID.TID 0000.0001) // End MONITOR dynamic field statistics
(PID.TID 0000.0001) // =======================================================
 EXTERNAL_FIELDS_LOAD,        38 : iP,iLd,i0,i1=    1    2    1    2 ; Wght=  0.2333333333  0.7666666667
 EXTERNAL_FIELDS_LOAD: (fu0,1),fu,fv= -3.5633E-02 -1.4435E-02 -1.9381E-02 -2.6880E-02
 EXTERNAL_FIELDS_LOAD: SST,SSS,Q,E-P= -1.8412E-01  3.4490E+01  2.4638E+02  9.1377E-06
DEBUG_STATS_RL:          Uvel (THERMODYNAMICS)  min= -1.61364715496320E-01
DEBUG_STATS_RL:          Uvel (THERMODYNAMICS)  max=  1.38259465901149E-01
DEBUG_STATS_RL:          Uvel (THERMODYNAMICS) mean=  3.20162737609586E-03
DEBUG_STATS_RL:          Uvel (THERMODYNAMICS) S.D.=  2.28673383793933E-02
DEBUG_STATS_RL:          Vvel (THERMODYNAMICS)  min= -1.12554501006952E-01
DEBUG_STATS_RL:          Vvel (THERMODYNAMICS)  max=  1.13738571833659E-01
DEBUG_STATS_RL:          Vvel (THERMODYNAMICS) mean= -2.23859066514962E-04
DEBUG_STATS_RL:          Vvel (THERMODYNAMICS) S.D.=  1.40105146182161E-02
DEBUG_STATS_RL:          Wvel (THERMODYNAMICS)  min= -1.12566045613827E-04
DEBUG_STATS_RL:          Wvel (THERMODYNAMICS)  max=  8.08983999188248E-05
DEBUG_STATS_RL:          Wvel (THERMODYNAMICS) mean= -3.78822175901014E-07
DEBUG_STATS_RL:          Wvel (THERMODYNAMICS) S.D.=  1.30748642179824E-05
DEBUG_STATS_RL:         Theta (THERMODYNAMICS)  min= -2.00054243133007E+00
DEBUG_STATS_RL:         Theta (THERMODYNAMICS)  max=  3.01720778806156E+01
DEBUG_STATS_RL:         Theta (THERMODYNAMICS) mean=  3.22322286915100E+00
DEBUG_STATS_RL:         Theta (THERMODYNAMICS) S.D.=  5.86290702388229E+00
DEBUG_STATS_RL:          Salt (THERMODYNAMICS)  min=  9.99999999999998E-03
DEBUG_STATS_RL:          Salt (THERMODYNAMICS)  max=  3.74658183330870E+01
DEBUG_STATS_RL:          Salt (THERMODYNAMICS) mean=  1.88548294395911E+01
DEBUG_STATS_RL:          Salt (THERMODYNAMICS) S.D.=  1.73003506586777E+01
DEBUG_STATS_RL:         GtNm1 (THERMODYNAMICS)  min= -3.40334619446915E-06
DEBUG_STATS_RL:         GtNm1 (THERMODYNAMICS)  max=  2.51492189828508E-06
DEBUG_STATS_RL:         GtNm1 (THERMODYNAMICS) mean=  1.30002168834371E-08
DEBUG_STATS_RL:         GtNm1 (THERMODYNAMICS) S.D.=  2.02820107185052E-07
DEBUG_STATS_RL:         GsNm1 (THERMODYNAMICS)  min= -4.22875103560255E-07
DEBUG_STATS_RL:         GsNm1 (THERMODYNAMICS)  max=  3.26274968081373E-07
DEBUG_STATS_RL:         GsNm1 (THERMODYNAMICS) mean= -3.19550999873534E-11
DEBUG_STATS_RL:         GsNm1 (THERMODYNAMICS) S.D.=  1.77499600871770E-08
DEBUG_STATS_RL:                EtaN (DYNAMICS)  min= -1.71533903113505E+00
DEBUG_STATS_RL:                EtaN (DYNAMICS)  max=  8.89932994416074E-01
DEBUG_STATS_RL:                EtaN (DYNAMICS) mean= -1.71761622422808E-01
DEBUG_STATS_RL:                EtaN (DYNAMICS) S.D.=  6.81310649391072E-01
DEBUG_STATS_RL:                Uvel (DYNAMICS)  min= -1.61364715496320E-01
DEBUG_STATS_RL:                Uvel (DYNAMICS)  max=  1.38259465901149E-01
DEBUG_STATS_RL:                Uvel (DYNAMICS) mean=  3.20162737609586E-03
DEBUG_STATS_RL:                Uvel (DYNAMICS) S.D.=  2.28673383793933E-02
DEBUG_STATS_RL:                Vvel (DYNAMICS)  min= -1.12554501006952E-01
DEBUG_STATS_RL:                Vvel (DYNAMICS)  max=  1.13738571833659E-01
DEBUG_STATS_RL:                Vvel (DYNAMICS) mean= -2.23859066514962E-04
DEBUG_STATS_RL:                Vvel (DYNAMICS) S.D.=  1.40105146182161E-02
DEBUG_STATS_RL:                Wvel (DYNAMICS)  min= -1.12566045613827E-04
DEBUG_STATS_RL:                Wvel (DYNAMICS)  max=  8.08983999188248E-05
DEBUG_STATS_RL:                Wvel (DYNAMICS) mean= -3.78822175901014E-07
DEBUG_STATS_RL:                Wvel (DYNAMICS) S.D.=  1.30748642179824E-05
DEBUG_STATS_RL:               Theta (DYNAMICS)  min= -2.00054243133007E+00
DEBUG_STATS_RL:               Theta (DYNAMICS)  max=  3.01720778806156E+01
DEBUG_STATS_RL:               Theta (DYNAMICS) mean=  3.22322286915100E+00
DEBUG_STATS_RL:               Theta (DYNAMICS) S.D.=  5.86290702388229E+00
DEBUG_STATS_RL:                Salt (DYNAMICS)  min=  9.99999999999998E-03
DEBUG_STATS_RL:                Salt (DYNAMICS)  max=  3.74658183330870E+01
DEBUG_STATS_RL:                Salt (DYNAMICS) mean=  1.88548294395911E+01
DEBUG_STATS_RL:                Salt (DYNAMICS) S.D.=  1.73003506586777E+01
DEBUG_STATS_RL:                  Gu (DYNAMICS)  min= -1.58812472340807E-01
DEBUG_STATS_RL:                  Gu (DYNAMICS)  max=  1.42484364694509E-01
DEBUG_STATS_RL:                  Gu (DYNAMICS) mean=  3.13128517421632E-03
DEBUG_STATS_RL:                  Gu (DYNAMICS) S.D.=  2.37192432231404E-02
DEBUG_STATS_RL:                  Gv (DYNAMICS)  min= -1.08854064028924E-01
DEBUG_STATS_RL:                  Gv (DYNAMICS)  max=  1.22213753762293E-01
DEBUG_STATS_RL:                  Gv (DYNAMICS) mean=  2.17195217654466E-03
DEBUG_STATS_RL:                  Gv (DYNAMICS) S.D.=  1.41105009167745E-02
DEBUG_STATS_RL:               GuNm1 (DYNAMICS)  min= -8.54599083153444E-06
DEBUG_STATS_RL:               GuNm1 (DYNAMICS)  max=  8.24469153984732E-06
DEBUG_STATS_RL:               GuNm1 (DYNAMICS) mean= -1.93557829939215E-08
DEBUG_STATS_RL:               GuNm1 (DYNAMICS) S.D.=  1.17333371229824E-06
DEBUG_STATS_RL:               GvNm1 (DYNAMICS)  min= -1.03639915753643E-05
DEBUG_STATS_RL:               GvNm1 (DYNAMICS)  max=  1.63623439364786E-05
DEBUG_STATS_RL:               GvNm1 (DYNAMICS) mean=  7.49884918739767E-07
DEBUG_STATS_RL:               GvNm1 (DYNAMICS) S.D.=  2.61105819377563E-06
DEBUG_STATS_RL:               GtNm1 (DYNAMICS)  min= -3.40334619446915E-06
DEBUG_STATS_RL:               GtNm1 (DYNAMICS)  max=  2.51492189828508E-06
DEBUG_STATS_RL:               GtNm1 (DYNAMICS) mean=  1.30002168834371E-08
DEBUG_STATS_RL:               GtNm1 (DYNAMICS) S.D.=  2.02820107185052E-07
DEBUG_STATS_RL:               GsNm1 (DYNAMICS)  min= -4.22875103560255E-07
DEBUG_STATS_RL:               GsNm1 (DYNAMICS)  max=  3.26274968081373E-07
DEBUG_STATS_RL:               GsNm1 (DYNAMICS) mean= -3.19550999873534E-11
DEBUG_STATS_RL:               GsNm1 (DYNAMICS) S.D.=  1.77499600871770E-08
DEBUG_STATS_RL:    cg2d_b (SOLVE_FOR_PRESSURE)  min= -2.03339223177191E+04
DEBUG_STATS_RL:    cg2d_b (SOLVE_FOR_PRESSURE)  max=  1.71441124045053E+04
DEBUG_STATS_RL:    cg2d_b (SOLVE_FOR_PRESSURE) mean=  2.80111578928705E+00
DEBUG_STATS_RL:    cg2d_b (SOLVE_FOR_PRESSURE) S.D.=  3.68206900139172E+03
 cg2d: Sum(rhs),rhsMax =   3.18904683064894E-01  1.33558646039422E+00
(PID.TID 0000.0001)  cg2d: iter=     1 ; resid.=  1.52620643430124E-01
(PID.TID 0000.0001)  cg2d: iter=     2 ; resid.=  1.20329380097207E-01
(PID.TID 0000.0001)  cg2d: iter=     3 ; resid.=  1.19845832252339E-01
(PID.TID 0000.0001)  cg2d: iter=     4 ; resid.=  1.06822792493313E-01
(PID.TID 0000.0001)  cg2d: iter=     5 ; resid.=  9.65438433325616E-02
(PID.TID 0000.0001)  cg2d: iter=     6 ; resid.=  8.03086343713112E-02
(PID.TID 0000.0001)  cg2d: iter=     7 ; resid.=  6.73013833088377E-02
(PID.TID 0000.0001)  cg2d: iter=     8 ; resid.=  5.43495556393317E-02
(PID.TID 0000.0001)  cg2d: iter=     9 ; resid.=  4.57782948186621E-02
(PID.TID 0000.0001)  cg2d: iter=    10 ; resid.=  3.73273136846055E-02
(PID.TID 0000.0001)  cg2d: iter=    11 ; resid.=  3.34540968497662E-02
(PID.TID 0000.0001)  cg2d: iter=    12 ; resid.=  2.87607047681646E-02
(PID.TID 0000.0001)  cg2d: iter=    13 ; resid.=  2.30492001134366E-02
(PID.TID 0000.0001)  cg2d: iter=    14 ; resid.=  1.93518700527829E-02
(PID.TID 0000.0001)  cg2d: iter=    15 ; resid.=  1.56017291083587E-02
(PID.TID 0000.0001)  cg2d: iter=    16 ; resid.=  1.31273471838421E-02
(PID.TID 0000.0001)  cg2d: iter=    17 ; resid.=  1.11029000816583E-02
(PID.TID 0000.0001)  cg2d: iter=    18 ; resid.=  9.30793202562485E-03
(PID.TID 0000.0001)  cg2d: iter=    19 ; resid.=  7.56112391738108E-03
(PID.TID 0000.0001)  cg2d: iter=    20 ; resid.=  5.84890225408777E-03
(PID.TID 0000.0001)  cg2d: iter=    21 ; resid.=  4.60601380101971E-03
(PID.TID 0000.0001)  cg2d: iter=    22 ; resid.=  3.91745412152393E-03
(PID.TID 0000.0001)  cg2d: iter=    23 ; resid.=  3.35367017306722E-03
(PID.TID 0000.0001)  cg2d: iter=    24 ; resid.=  2.97261445465691E-03
(PID.TID 0000.0001)  cg2d: iter=    25 ; resid.=  2.34462091097730E-03
(PID.TID 0000.0001)  cg2d: iter=    26 ; resid.=  1.89236483736265E-03
(PID.TID 0000.0001)  cg2d: iter=    27 ; resid.=  1.53617788265818E-03
(PID.TID 0000.0001)  cg2d: iter=    28 ; resid.=  1.30337611716224E-03
(PID.TID 0000.0001)  cg2d: iter=    29 ; resid.=  1.11745352547225E-03
(PID.TID 0000.0001)  cg2d: iter=    30 ; resid.=  9.61866408193028E-04
(PID.TID 0000.0001)  cg2d: iter=    31 ; resid.=  7.74331305098447E-04
(PID.TID 0000.0001)  cg2d: iter=    32 ; resid.=  5.66021085911538E-04
(PID.TID 0000.0001)  cg2d: iter=    33 ; resid.=  4.51491652352395E-04
(PID.TID 0000.0001)  cg2d: iter=    34 ; resid.=  3.94212867781663E-04
(PID.TID 0000.0001)  cg2d: iter=    35 ; resid.=  3.19448654563121E-04
(PID.TID 0000.0001)  cg2d: iter=    36 ; resid.=  2.58679133429684E-04
(PID.TID 0000.0001)  cg2d: iter=    37 ; resid.=  2.02233377003546E-04
(PID.TID 0000.0001)  cg2d: iter=    38 ; resid.=  1.75922889606694E-04
(PID.TID 0000.0001)  cg2d: iter=    39 ; resid.=  1.56489934293571E-04
(PID.TID 0000.0001)  cg2d: iter=    40 ; resid.=  1.29108051354309E-04
(PID.TID 0000.0001)  cg2d: iter=    41 ; resid.=  1.12775551888209E-04
(PID.TID 0000.0001)  cg2d: iter=    42 ; resid.=  1.00213771338695E-04
(PID.TID 0000.0001)  cg2d: iter=    43 ; resid.=  8.71881205058170E-05
(PID.TID 0000.0001)  cg2d: iter=    44 ; resid.=  7.34388588210118E-05
(PID.TID 0000.0001)  cg2d: iter=    45 ; resid.=  5.83234029121513E-05
(PID.TID 0000.0001)  cg2d: iter=    46 ; resid.=  4.51296317579640E-05
(PID.TID 0000.0001)  cg2d: iter=    47 ; resid.=  3.84944510297590E-05
(PID.TID 0000.0001)  cg2d: iter=    48 ; resid.=  3.35995025464300E-05
(PID.TID 0000.0001)  cg2d: iter=    49 ; resid.=  2.79322975280356E-05
(PID.TID 0000.0001)  cg2d: iter=    50 ; resid.=  2.45776232455187E-05
(PID.TID 0000.0001)  cg2d: iter=    51 ; resid.=  2.12403855814601E-05
(PID.TID 0000.0001)  cg2d: iter=    52 ; resid.=  1.70713325015474E-05
(PID.TID 0000.0001)  cg2d: iter=    53 ; resid.=  1.37992472444459E-05
(PID.TID 0000.0001)  cg2d: iter=    54 ; resid.=  1.20165547269913E-05
(PID.TID 0000.0001)  cg2d: iter=    55 ; resid.=  1.05911007522357E-05
(PID.TID 0000.0001)  cg2d: iter=    56 ; resid.=  8.50258803866047E-06
(PID.TID 0000.0001)  cg2d: iter=    57 ; resid.=  6.65624400175389E-06
(PID.TID 0000.0001)  cg2d: iter=    58 ; resid.=  5.41225467275028E-06
(PID.TID 0000.0001)  cg2d: iter=    59 ; resid.=  4.75876367962582E-06
(PID.TID 0000.0001)  cg2d: iter=    60 ; resid.=  3.93376390941340E-06
(PID.TID 0000.0001)  cg2d: iter=    61 ; resid.=  3.32622898652320E-06
(PID.TID 0000.0001)  cg2d: iter=    62 ; resid.=  2.86007657709244E-06
(PID.TID 0000.0001)  cg2d: iter=    63 ; resid.=  2.42506984732426E-06
(PID.TID 0000.0001)  cg2d: iter=    64 ; resid.=  2.04314299804630E-06
(PID.TID 0000.0001)  cg2d: iter=    65 ; resid.=  1.69018465215660E-06
(PID.TID 0000.0001)  cg2d: iter=    66 ; resid.=  1.49563221886785E-06
(PID.TID 0000.0001)  cg2d: iter=    67 ; resid.=  1.23018687014366E-06
(PID.TID 0000.0001)  cg2d: iter=    68 ; resid.=  1.02284295950936E-06
(PID.TID 0000.0001)  cg2d: iter=    69 ; resid.=  7.48781385051724E-07
(PID.TID 0000.0001)  cg2d: iter=    70 ; resid.=  5.62734953585723E-07
(PID.TID 0000.0001)  cg2d: iter=    71 ; resid.=  4.89698331940959E-07
(PID.TID 0000.0001)  cg2d: iter=    72 ; resid.=  4.39349751389522E-07
(PID.TID 0000.0001)  cg2d: iter=    73 ; resid.=  4.03191636145309E-07
(PID.TID 0000.0001)  cg2d: iter=    74 ; resid.=  3.41361374020361E-07
(PID.TID 0000.0001)  cg2d: iter=    75 ; resid.=  2.80688108846923E-07
(PID.TID 0000.0001)  cg2d: iter=    76 ; resid.=  2.29013636135032E-07
(PID.TID 0000.0001)  cg2d: iter=    77 ; resid.=  1.94660866818212E-07
(PID.TID 0000.0001)  cg2d: iter=    78 ; resid.=  1.56401536247732E-07
(PID.TID 0000.0001)  cg2d: iter=    79 ; resid.=  1.27391517802325E-07
(PID.TID 0000.0001)  cg2d: iter=    80 ; resid.=  9.70355912110270E-08
(PID.TID 0000.0001)  cg2d: iter=    81 ; resid.=  7.30981886178204E-08
(PID.TID 0000.0001)  cg2d: iter=    82 ; resid.=  5.73693844789874E-08
(PID.TID 0000.0001)  cg2d: iter=    83 ; resid.=  4.14036685875868E-08
(PID.TID 0000.0001)  cg2d: iter=    84 ; resid.=  3.14209219973025E-08
(PID.TID 0000.0001)  cg2d: iter=    85 ; resid.=  2.37148205833983E-08
(PID.TID 0000.0001)  cg2d: iter=    86 ; resid.=  1.83219876904967E-08
(PID.TID 0000.0001)  cg2d: iter=    87 ; resid.=  1.54086495782060E-08
(PID.TID 0000.0001)  cg2d: iter=    88 ; resid.=  1.24189385883305E-08
(PID.TID 0000.0001)  cg2d: iter=    89 ; resid.=  1.03222599558795E-08
(PID.TID 0000.0001)  cg2d: iter=    90 ; resid.=  8.01278623562406E-09
(PID.TID 0000.0001)  cg2d: iter=    91 ; resid.=  5.84591735647867E-09
(PID.TID 0000.0001)  cg2d: iter=    92 ; resid.=  4.27220222283649E-09
(PID.TID 0000.0001)  cg2d: iter=    93 ; resid.=  3.22907798265384E-09
(PID.TID 0000.0001)  cg2d: iter=    94 ; resid.=  2.41079556782267E-09
(PID.TID 0000.0001)  cg2d: iter=    95 ; resid.=  1.92659873519580E-09
(PID.TID 0000.0001)  cg2d: iter=    96 ; resid.=  1.47456191472635E-09
(PID.TID 0000.0001)  cg2d: iter=    97 ; resid.=  1.11487043930007E-09
(PID.TID 0000.0001)  cg2d: iter=    98 ; resid.=  7.96727066221366E-10
(PID.TID 0000.0001)  cg2d: iter=    99 ; resid.=  6.44581770604423E-10
(PID.TID 0000.0001)  cg2d: iter=   100 ; resid.=  5.62757877600672E-10
(PID.TID 0000.0001)  cg2d: iter=   101 ; resid.=  4.64974023420904E-10
(PID.TID 0000.0001)  cg2d: iter=   102 ; resid.=  3.55677929087607E-10
(PID.TID 0000.0001)  cg2d: iter=   103 ; resid.=  2.76259013112880E-10
(PID.TID 0000.0001)  cg2d: iter=   104 ; resid.=  2.31884871300965E-10
(PID.TID 0000.0001)  cg2d: iter=   105 ; resid.=  1.86473254571662E-10
(PID.TID 0000.0001)  cg2d: iter=   106 ; resid.=  1.54965012838944E-10
(PID.TID 0000.0001)  cg2d: iter=   107 ; resid.=  1.30021637238371E-10
(PID.TID 0000.0001)  cg2d: iter=   108 ; resid.=  1.07540722158864E-10
(PID.TID 0000.0001)  cg2d: iter=   109 ; resid.=  8.70477099424271E-11
(PID.TID 0000.0001)  cg2d: iter=   110 ; resid.=  7.37435933806622E-11
(PID.TID 0000.0001)  cg2d: iter=   111 ; resid.=  6.61712421959909E-11
(PID.TID 0000.0001)  cg2d: iter=   112 ; resid.=  5.15792381553294E-11
(PID.TID 0000.0001)  cg2d: iter=   113 ; resid.=  3.76365625544990E-11
(PID.TID 0000.0001)  cg2d: iter=   114 ; resid.=  2.92389888218470E-11
(PID.TID 0000.0001)  cg2d: iter=   115 ; resid.=  2.34262273482222E-11
(PID.TID 0000.0001)  cg2d: iter=   116 ; resid.=  1.77725565275880E-11
(PID.TID 0000.0001)  cg2d: iter=   117 ; resid.=  1.41546288161270E-11
(PID.TID 0000.0001)  cg2d: iter=   118 ; resid.=  1.16121987890305E-11
(PID.TID 0000.0001)  cg2d: iter=   119 ; resid.=  9.18586201693427E-12
(PID.TID 0000.0001)  cg2d: iter=   120 ; resid.=  6.59638617675454E-12
(PID.TID 0000.0001)  cg2d: iter=   121 ; resid.=  5.16540357248440E-12
(PID.TID 0000.0001)  cg2d: iter=   122 ; resid.=  4.07323695700498E-12
(PID.TID 0000.0001)  cg2d: iter=   123 ; resid.=  2.87933534037625E-12
(PID.TID 0000.0001)  cg2d: iter=   124 ; resid.=  1.89300468526220E-12
(PID.TID 0000.0001)  cg2d: iter=   125 ; resid.=  1.27672621383005E-12
(PID.TID 0000.0001)  cg2d: iter=   126 ; resid.=  9.52943320829698E-13
(PID.TID 0000.0001)  cg2d: iter=   127 ; resid.=  6.49106794173776E-13
(PID.TID 0000.0001)  cg2d: iter=   128 ; resid.=  4.58075160879078E-13
(PID.TID 0000.0001)  cg2d: iter=   129 ; resid.=  3.36271332523724E-13
(PID.TID 0000.0001)  cg2d: iter=   130 ; resid.=  2.66274133413208E-13
(PID.TID 0000.0001)  cg2d: iter=   131 ; resid.=  2.01155292700174E-13
(PID.TID 0000.0001)  cg2d: iter=   132 ; resid.=  1.53900670792546E-13
(PID.TID 0000.0001)  cg2d: iter=   133 ; resid.=  1.18124559187241E-13
(PID.TID 0000.0001)  cg2d: iter=   134 ; resid.=  9.45939194643632E-14
DEBUG_STATS_RL:    cg2d_x (SOLVE_FOR_PRESSURE)  min= -1.68051544543885E+01
DEBUG_STATS_RL:    cg2d_x (SOLVE_FOR_PRESSURE)  max=  8.93301042957940E+00
DEBUG_STATS_RL:    cg2d_x (SOLVE_FOR_PRESSURE) mean= -1.70497432265113E+00
DEBUG_STATS_RL:    cg2d_x (SOLVE_FOR_PRESSURE) S.D.=  6.76425299432668E+00
(PID.TID 0000.0001)      cg2d_init_res =   4.22668118951305E-01
(PID.TID 0000.0001)      cg2d_iters(min,last) =      -1     134
(PID.TID 0000.0001)      cg2d_last_res =   9.45939194643632E-14
(PID.TID 0000.0001) // =======================================================
(PID.TID 0000.0001) // Begin MONITOR dynamic field statistics
(PID.TID 0000.0001) // =======================================================
(PID.TID 0000.0001) %MON time_tsnumber                =                    39
(PID.TID 0000.0001) %MON time_secondsf                =   3.3696000000000E+06
(PID.TID 0000.0001) %MON dynstat_eta_max              =   9.1060249027316E-01
(PID.TID 0000.0001) %MON dynstat_eta_min              =  -1.7130636548816E+00
(PID.TID 0000.0001) %MON dynstat_eta_mean             =  -2.9226169992294E-03
(PID.TID 0000.0001) %MON dynstat_eta_sd               =   6.1086456239047E-01
(PID.TID 0000.0001) %MON dynstat_eta_del2             =   2.1739646273013E-03
(PID.TID 0000.0001) %MON dynstat_uvel_max             =   1.4198260337873E-01
(PID.TID 0000.0001) %MON dynstat_uvel_min             =  -1.5797030306856E-01
(PID.TID 0000.0001) %MON dynstat_uvel_mean            =   1.5154081557674E-03
(PID.TID 0000.0001) %MON dynstat_uvel_sd              =   1.4700719826703E-02
(PID.TID 0000.0001) %MON dynstat_uvel_del2            =   8.6039244153762E-05
(PID.TID 0000.0001) %MON dynstat_vvel_max             =   1.1710635226011E-01
(PID.TID 0000.0001) %MON dynstat_vvel_min             =  -1.1330675564942E-01
(PID.TID 0000.0001) %MON dynstat_vvel_mean            =  -3.8343082451594E-05
(PID.TID 0000.0001) %MON dynstat_vvel_sd              =   9.3619715194574E-03
(PID.TID 0000.0001) %MON dynstat_vvel_del2            =   8.0350625753203E-05
(PID.TID 0000.0001) %MON dynstat_wvel_max             =   8.5247431702695E-05
(PID.TID 0000.0001) %MON dynstat_wvel_min             =  -1.2033495310414E-04
(PID.TID 0000.0001) %MON dynstat_wvel_mean            =  -4.6149088841148E-23
(PID.TID 0000.0001) %MON dynstat_wvel_sd              =   1.4747130425160E-05
(PID.TID 0000.0001) %MON dynstat_wvel_del2            =   1.5530366819155E-07
(PID.TID 0000.0001) %MON dynstat_theta_max            =   3.0172077880616E+01
(PID.TID 0000.0001) %MON dynstat_theta_min            =  -2.0005424313301E+00
(PID.TID 0000.0001) %MON dynstat_theta_mean           =   3.6317905357663E+00
(PID.TID 0000.0001) %MON dynstat_theta_sd             =   4.4189447915694E+00
(PID.TID 0000.0001) %MON dynstat_theta_del2           =   4.7496436519242E-03
(PID.TID 0000.0001) %MON dynstat_salt_max             =   3.7465818333087E+01
(PID.TID 0000.0001) %MON dynstat_salt_min             =   2.9830912475202E+01
(PID.TID 0000.0001) %MON dynstat_salt_mean            =   3.4727994826437E+01
(PID.TID 0000.0001) %MON dynstat_salt_sd              =   2.9633181118626E-01
(PID.TID 0000.0001) %MON dynstat_salt_del2            =   9.8654279159118E-04
(PID.TID 0000.0001) %MON dynstat_sst_max              =   3.0172077880616E+01
(PID.TID 0000.0001) %MON dynstat_sst_min              =  -2.0005424313301E+00
(PID.TID 0000.0001) %MON dynstat_sst_mean             =   1.8833860216361E+01
(PID.TID 0000.0001) %MON dynstat_sst_sd               =   9.0178917497936E+00
(PID.TID 0000.0001) %MON dynstat_sst_del2             =   2.6891040975272E-02
(PID.TID 0000.0001) %MON dynstat_sss_max              =   3.7440316489993E+01
(PID.TID 0000.0001) %MON dynstat_sss_min              =   2.9830912475202E+01
(PID.TID 0000.0001) %MON dynstat_sss_mean             =   3.4854245414010E+01
(PID.TID 0000.0001) %MON dynstat_sss_sd               =   9.7659607044840E-01
(PID.TID 0000.0001) %MON dynstat_sss_del2             =   7.8554903727873E-03
(PID.TID 0000.0001) %MON forcing_qnet_max             =   3.6793170572917E+02
(PID.TID 0000.0001) %MON forcing_qnet_min             =  -1.7451060384115E+02
(PID.TID 0000.0001) %MON forcing_qnet_mean            =  -1.4559615150767E+01
(PID.TID 0000.0001) %MON forcing_qnet_sd              =   8.6177901833202E+01
(PID.TID 0000.0001) %MON forcing_qnet_del2            =   9.5684138500013E-01
(PID.TID 0000.0001) %MON forcing_qsw_max              =   0.0000000000000E+00
(PID.TID 0000.0001) %MON forcing_qsw_min              =   0.0000000000000E+00
(PID.TID 0000.0001) %MON forcing_qsw_mean             =   0.0000000000000E+00
(PID.TID 0000.0001) %MON forcing_qsw_sd               =   0.0000000000000E+00
(PID.TID 0000.0001) %MON forcing_qsw_del2             =   0.0000000000000E+00
(PID.TID 0000.0001) %MON forcing_empmr_max            =   7.4950175132926E-05
(PID.TID 0000.0001) %MON forcing_empmr_min            =  -7.7987774223705E-05
(PID.TID 0000.0001) %MON forcing_empmr_mean           =   9.3863219908967E-07
(PID.TID 0000.0001) %MON forcing_empmr_sd             =   2.8025183724210E-05
(PID.TID 0000.0001) %MON forcing_empmr_del2           =   3.5387045439018E-07
(PID.TID 0000.0001) %MON forcing_fu_max               =   2.9492541849613E-01
(PID.TID 0000.0001) %MON forcing_fu_min               =  -2.0411288440228E-01
(PID.TID 0000.0001) %MON forcing_fu_mean              =   1.7250640108353E-02
(PID.TID 0000.0001) %MON forcing_fu_sd                =   9.1176576117499E-02
(PID.TID 0000.0001) %MON forcing_fu_del2              =   6.9491420823166E-04
(PID.TID 0000.0001) %MON forcing_fv_max               =   1.8680121054252E-01
(PID.TID 0000.0001) %MON forcing_fv_min               =  -1.7747596303622E-01
(PID.TID 0000.0001) %MON forcing_fv_mean              =  -6.7598985939541E-03
(PID.TID 0000.0001) %MON forcing_fv_sd                =   4.4539193201071E-02
(PID.TID 0000.0001) %MON forcing_fv_del2              =   4.9416249691419E-04
(PID.TID 0000.0001) %MON trAdv_CFL_u_max              =   4.5708960010469E-02
(PID.TID 0000.0001) %MON trAdv_CFL_v_max              =   2.3323024301685E-02
(PID.TID 0000.0001) %MON trAdv_CFL_w_max              =   3.6935698058461E-02
(PID.TID 0000.0001) %MON advcfl_uvel_max              =   4.6930307628019E-02
(PID.TID 0000.0001) %MON advcfl_vvel_max              =   2.2751886084052E-02
(PID.TID 0000.0001) %MON advcfl_wvel_max              =   2.9269896547139E-02
(PID.TID 0000.0001) %MON advcfl_W_hf_max              =   3.4496663787700E-02
(PID.TID 0000.0001) %MON pe_b_mean                    =   4.7750838724382E-04
(PID.TID 0000.0001) %MON ke_max                       =   1.5072197018038E-02
(PID.TID 0000.0001) %MON ke_mean                      =   1.3857491025358E-04
(PID.TID 0000.0001) %MON ke_vol                       =   1.3226782436723E+18
(PID.TID 0000.0001) %MON vort_r_min                   =  -4.3691365860632E-07
(PID.TID 0000.0001) %MON vort_r_max                   =   4.4530362355866E-07
(PID.TID 0000.0001) %MON vort_a_mean                  =  -2.5274806935054E-05
(PID.TID 0000.0001) %MON vort_a_sd                    =   7.3604548921462E-05
(PID.TID 0000.0001) %MON vort_p_mean                  =  -3.1845655216863E-05
(PID.TID 0000.0001) %MON vort_p_sd                    =   1.3162477462137E-04
(PID.TID 0000.0001) %MON surfExpan_theta_mean         =   3.9107298752490E-07
(PID.TID 0000.0001) %MON surfExpan_salt_mean          =  -4.3842523737907E-08
(PID.TID 0000.0001) // =======================================================
(PID.TID 0000.0001) // End MONITOR dynamic field statistics
(PID.TID 0000.0001) // =======================================================
 EXTERNAL_FIELDS_LOAD,        39 : iP,iLd,i0,i1=    1    2    1    2 ; Wght=  0.2000000000  0.8000000000
 EXTERNAL_FIELDS_LOAD: (fu0,1),fu,fv= -3.5633E-02 -1.4435E-02 -1.8674E-02 -2.5560E-02
 EXTERNAL_FIELDS_LOAD: SST,SSS,Q,E-P= -2.3380E-01  3.4480E+01  2.4554E+02  9.0291E-06
DEBUG_STATS_RL:          Uvel (THERMODYNAMICS)  min= -1.57970303068556E-01
DEBUG_STATS_RL:          Uvel (THERMODYNAMICS)  max=  1.41982603378729E-01
DEBUG_STATS_RL:          Uvel (THERMODYNAMICS) mean=  3.28133131966399E-03
DEBUG_STATS_RL:          Uvel (THERMODYNAMICS) S.D.=  2.33584361926848E-02
DEBUG_STATS_RL:          Vvel (THERMODYNAMICS)  min= -1.13306755649420E-01
DEBUG_STATS_RL:          Vvel (THERMODYNAMICS)  max=  1.17106352260109E-01
DEBUG_STATS_RL:          Vvel (THERMODYNAMICS) mean= -1.05577776178445E-04
DEBUG_STATS_RL:          Vvel (THERMODYNAMICS) S.D.=  1.41295221740301E-02
DEBUG_STATS_RL:          Wvel (THERMODYNAMICS)  min= -1.20334953104137E-04
DEBUG_STATS_RL:          Wvel (THERMODYNAMICS)  max=  8.52474317026950E-05
DEBUG_STATS_RL:          Wvel (THERMODYNAMICS) mean= -3.66469741650475E-07
DEBUG_STATS_RL:          Wvel (THERMODYNAMICS) S.D.=  1.29416058136186E-05
DEBUG_STATS_RL:         Theta (THERMODYNAMICS)  min= -1.99942292911349E+00
DEBUG_STATS_RL:         Theta (THERMODYNAMICS)  max=  3.01959554810675E+01
DEBUG_STATS_RL:         Theta (THERMODYNAMICS) mean=  3.22381991946369E+00
DEBUG_STATS_RL:         Theta (THERMODYNAMICS) S.D.=  5.86364453302948E+00
DEBUG_STATS_RL:          Salt (THERMODYNAMICS)  min=  9.99999999999998E-03
DEBUG_STATS_RL:          Salt (THERMODYNAMICS)  max=  3.74660236515740E+01
DEBUG_STATS_RL:          Salt (THERMODYNAMICS) mean=  1.88548353794147E+01
DEBUG_STATS_RL:          Salt (THERMODYNAMICS) S.D.=  1.73003568106467E+01
DEBUG_STATS_RL:         GtNm1 (THERMODYNAMICS)  min= -3.56955133620951E-06
DEBUG_STATS_RL:         GtNm1 (THERMODYNAMICS)  max=  2.62644563014551E-06
DEBUG_STATS_RL:         GtNm1 (THERMODYNAMICS) mean=  1.30787137653497E-08
DEBUG_STATS_RL:         GtNm1 (THERMODYNAMICS) S.D.=  2.02658138135961E-07
DEBUG_STATS_RL:         GsNm1 (THERMODYNAMICS)  min= -4.29906531256867E-07
DEBUG_STATS_RL:         GsNm1 (THERMODYNAMICS)  max=  2.98561008298911E-07
DEBUG_STATS_RL:         GsNm1 (THERMODYNAMICS) mean=  4.13065036539094E-11
DEBUG_STATS_RL:         GsNm1 (THERMODYNAMICS) S.D.=  1.78737446827299E-08
DEBUG_STATS_RL:                EtaN (DYNAMICS)  min= -1.71306365488160E+00
DEBUG_STATS_RL:                EtaN (DYNAMICS)  max=  9.10602490273157E-01
DEBUG_STATS_RL:                EtaN (DYNAMICS) mean= -1.73799625142828E-01
DEBUG_STATS_RL:                EtaN (DYNAMICS) S.D.=  6.89526299115875E-01
DEBUG_STATS_RL:                Uvel (DYNAMICS)  min= -1.57970303068556E-01
DEBUG_STATS_RL:                Uvel (DYNAMICS)  max=  1.41982603378729E-01
DEBUG_STATS_RL:                Uvel (DYNAMICS) mean=  3.28133131966399E-03
DEBUG_STATS_RL:                Uvel (DYNAMICS) S.D.=  2.33584361926848E-02
DEBUG_STATS_RL:                Vvel (DYNAMICS)  min= -1.13306755649420E-01
DEBUG_STATS_RL:                Vvel (DYNAMICS)  max=  1.17106352260109E-01
DEBUG_STATS_RL:                Vvel (DYNAMICS) mean= -1.05577776178445E-04
DEBUG_STATS_RL:                Vvel (DYNAMICS) S.D.=  1.41295221740301E-02
DEBUG_STATS_RL:                Wvel (DYNAMICS)  min= -1.20334953104137E-04
DEBUG_STATS_RL:                Wvel (DYNAMICS)  max=  8.52474317026950E-05
DEBUG_STATS_RL:                Wvel (DYNAMICS) mean= -3.66469741650475E-07
DEBUG_STATS_RL:                Wvel (DYNAMICS) S.D.=  1.29416058136186E-05
DEBUG_STATS_RL:               Theta (DYNAMICS)  min= -1.99942292911349E+00
DEBUG_STATS_RL:               Theta (DYNAMICS)  max=  3.01959554810675E+01
DEBUG_STATS_RL:               Theta (DYNAMICS) mean=  3.22381991946369E+00
DEBUG_STATS_RL:               Theta (DYNAMICS) S.D.=  5.86364453302948E+00
DEBUG_STATS_RL:                Salt (DYNAMICS)  min=  9.99999999999998E-03
DEBUG_STATS_RL:                Salt (DYNAMICS)  max=  3.74660236515740E+01
DEBUG_STATS_RL:                Salt (DYNAMICS) mean=  1.88548353794147E+01
DEBUG_STATS_RL:                Salt (DYNAMICS) S.D.=  1.73003568106467E+01
DEBUG_STATS_RL:                  Gu (DYNAMICS)  min= -1.54957249192344E-01
DEBUG_STATS_RL:                  Gu (DYNAMICS)  max=  1.47863484027067E-01
DEBUG_STATS_RL:                  Gu (DYNAMICS) mean=  3.20309551010512E-03
DEBUG_STATS_RL:                  Gu (DYNAMICS) S.D.=  2.41578360673517E-02
DEBUG_STATS_RL:                  Gv (DYNAMICS)  min= -1.09426155337182E-01
DEBUG_STATS_RL:                  Gv (DYNAMICS)  max=  1.23703550431662E-01
DEBUG_STATS_RL:                  Gv (DYNAMICS) mean=  2.31278967690894E-03
DEBUG_STATS_RL:                  Gv (DYNAMICS) S.D.=  1.42615826483308E-02
DEBUG_STATS_RL:               GuNm1 (DYNAMICS)  min= -8.63360345780000E-06
DEBUG_STATS_RL:               GuNm1 (DYNAMICS)  max=  8.31289568349383E-06
DEBUG_STATS_RL:               GuNm1 (DYNAMICS) mean= -1.85969388014116E-08
DEBUG_STATS_RL:               GuNm1 (DYNAMICS) S.D.=  1.17097753053747E-06
DEBUG_STATS_RL:               GvNm1 (DYNAMICS)  min= -1.02549037760115E-05
DEBUG_STATS_RL:               GvNm1 (DYNAMICS)  max=  1.63507876247540E-05
DEBUG_STATS_RL:               GvNm1 (DYNAMICS) mean=  7.48851226509226E-07
DEBUG_STATS_RL:               GvNm1 (DYNAMICS) S.D.=  2.60495189249177E-06
DEBUG_STATS_RL:               GtNm1 (DYNAMICS)  min= -3.56955133620951E-06
DEBUG_STATS_RL:               GtNm1 (DYNAMICS)  max=  2.62644563014551E-06
DEBUG_STATS_RL:               GtNm1 (DYNAMICS) mean=  1.30787137653497E-08
DEBUG_STATS_RL:               GtNm1 (DYNAMICS) S.D.=  2.02658138135961E-07
DEBUG_STATS_RL:               GsNm1 (DYNAMICS)  min= -4.29906531256867E-07
DEBUG_STATS_RL:               GsNm1 (DYNAMICS)  max=  2.98561008298911E-07
DEBUG_STATS_RL:               GsNm1 (DYNAMICS) mean=  4.13065036539094E-11
DEBUG_STATS_RL:               GsNm1 (DYNAMICS) S.D.=  1.78737446827299E-08
DEBUG_STATS_RL:    cg2d_b (SOLVE_FOR_PRESSURE)  min= -2.06007426922204E+04
DEBUG_STATS_RL:    cg2d_b (SOLVE_FOR_PRESSURE)  max=  1.74628243251994E+04
DEBUG_STATS_RL:    cg2d_b (SOLVE_FOR_PRESSURE) mean=  2.87626832164772E+00
DEBUG_STATS_RL:    cg2d_b (SOLVE_FOR_PRESSURE) S.D.=  3.66572209782625E+03
 cg2d: Sum(rhs),rhsMax =   3.23219471457746E-01  1.35311193698320E+00
(PID.TID 0000.0001)  cg2d: iter=     1 ; resid.=  1.48090554842004E-01
(PID.TID 0000.0001)  cg2d: iter=     2 ; resid.=  1.13900099644860E-01
(PID.TID 0000.0001)  cg2d: iter=     3 ; resid.=  1.13397848204582E-01
(PID.TID 0000.0001)  cg2d: iter=     4 ; resid.=  1.00295355862681E-01
(PID.TID 0000.0001)  cg2d: iter=     5 ; resid.=  8.72405336658596E-02
(PID.TID 0000.0001)  cg2d: iter=     6 ; resid.=  7.11087974152139E-02
(PID.TID 0000.0001)  cg2d: iter=     7 ; resid.=  5.84660146871435E-02
(PID.TID 0000.0001)  cg2d: iter=     8 ; resid.=  4.79768826847845E-02
(PID.TID 0000.0001)  cg2d: iter=     9 ; resid.=  4.11710805049294E-02
(PID.TID 0000.0001)  cg2d: iter=    10 ; resid.=  3.37461506050295E-02
(PID.TID 0000.0001)  cg2d: iter=    11 ; resid.=  3.00666649942536E-02
(PID.TID 0000.0001)  cg2d: iter=    12 ; resid.=  2.61950524774382E-02
(PID.TID 0000.0001)  cg2d: iter=    13 ; resid.=  2.11447076449022E-02
(PID.TID 0000.0001)  cg2d: iter=    14 ; resid.=  1.76901398874070E-02
(PID.TID 0000.0001)  cg2d: iter=    15 ; resid.=  1.44276471755829E-02
(PID.TID 0000.0001)  cg2d: iter=    16 ; resid.=  1.21027995688728E-02
(PID.TID 0000.0001)  cg2d: iter=    17 ; resid.=  1.02124348444140E-02
(PID.TID 0000.0001)  cg2d: iter=    18 ; resid.=  8.42026965807667E-03
(PID.TID 0000.0001)  cg2d: iter=    19 ; resid.=  6.90903608318637E-03
(PID.TID 0000.0001)  cg2d: iter=    20 ; resid.=  5.38628678634976E-03
(PID.TID 0000.0001)  cg2d: iter=    21 ; resid.=  4.23643793148700E-03
(PID.TID 0000.0001)  cg2d: iter=    22 ; resid.=  3.55127384069366E-03
(PID.TID 0000.0001)  cg2d: iter=    23 ; resid.=  2.97948223630108E-03
(PID.TID 0000.0001)  cg2d: iter=    24 ; resid.=  2.57268908635487E-03
(PID.TID 0000.0001)  cg2d: iter=    25 ; resid.=  2.02271672280566E-03
(PID.TID 0000.0001)  cg2d: iter=    26 ; resid.=  1.64413235287028E-03
(PID.TID 0000.0001)  cg2d: iter=    27 ; resid.=  1.36257661081518E-03
(PID.TID 0000.0001)  cg2d: iter=    28 ; resid.=  1.17693692271180E-03
(PID.TID 0000.0001)  cg2d: iter=    29 ; resid.=  1.04348767777598E-03
(PID.TID 0000.0001)  cg2d: iter=    30 ; resid.=  9.06927601525857E-04
(PID.TID 0000.0001)  cg2d: iter=    31 ; resid.=  7.33134772066291E-04
(PID.TID 0000.0001)  cg2d: iter=    32 ; resid.=  5.27842197805239E-04
(PID.TID 0000.0001)  cg2d: iter=    33 ; resid.=  4.17192829499641E-04
(PID.TID 0000.0001)  cg2d: iter=    34 ; resid.=  3.65829548025057E-04
(PID.TID 0000.0001)  cg2d: iter=    35 ; resid.=  2.95595086916628E-04
(PID.TID 0000.0001)  cg2d: iter=    36 ; resid.=  2.31828810455875E-04
(PID.TID 0000.0001)  cg2d: iter=    37 ; resid.=  1.73936060590583E-04
(PID.TID 0000.0001)  cg2d: iter=    38 ; resid.=  1.43386138394033E-04
(PID.TID 0000.0001)  cg2d: iter=    39 ; resid.=  1.22784130424309E-04
(PID.TID 0000.0001)  cg2d: iter=    40 ; resid.=  9.83634106345691E-05
(PID.TID 0000.0001)  cg2d: iter=    41 ; resid.=  8.39364791321569E-05
(PID.TID 0000.0001)  cg2d: iter=    42 ; resid.=  7.36120876221296E-05
(PID.TID 0000.0001)  cg2d: iter=    43 ; resid.=  6.45150604756064E-05
(PID.TID 0000.0001)  cg2d: iter=    44 ; resid.=  5.49468455402160E-05
(PID.TID 0000.0001)  cg2d: iter=    45 ; resid.=  4.41375704562753E-05
(PID.TID 0000.0001)  cg2d: iter=    46 ; resid.=  3.41228481410216E-05
(PID.TID 0000.0001)  cg2d: iter=    47 ; resid.=  2.88830211602250E-05
(PID.TID 0000.0001)  cg2d: iter=    48 ; resid.=  2.53357147362975E-05
(PID.TID 0000.0001)  cg2d: iter=    49 ; resid.=  2.10011143458266E-05
(PID.TID 0000.0001)  cg2d: iter=    50 ; resid.=  1.83246130766449E-05
(PID.TID 0000.0001)  cg2d: iter=    51 ; resid.=  1.57805223634710E-05
(PID.TID 0000.0001)  cg2d: iter=    52 ; resid.=  1.29486534165332E-05
(PID.TID 0000.0001)  cg2d: iter=    53 ; resid.=  1.05498144653954E-05
(PID.TID 0000.0001)  cg2d: iter=    54 ; resid.=  9.28720963991571E-06
(PID.TID 0000.0001)  cg2d: iter=    55 ; resid.=  8.35849482163490E-06
(PID.TID 0000.0001)  cg2d: iter=    56 ; resid.=  6.68504042624416E-06
(PID.TID 0000.0001)  cg2d: iter=    57 ; resid.=  5.11393555670760E-06
(PID.TID 0000.0001)  cg2d: iter=    58 ; resid.=  4.03419502327933E-06
(PID.TID 0000.0001)  cg2d: iter=    59 ; resid.=  3.50134745594756E-06
(PID.TID 0000.0001)  cg2d: iter=    60 ; resid.=  2.87453062498379E-06
(PID.TID 0000.0001)  cg2d: iter=    61 ; resid.=  2.38275482580711E-06
(PID.TID 0000.0001)  cg2d: iter=    62 ; resid.=  2.03785088010655E-06
(PID.TID 0000.0001)  cg2d: iter=    63 ; resid.=  1.75063239060647E-06
(PID.TID 0000.0001)  cg2d: iter=    64 ; resid.=  1.53787429977677E-06
(PID.TID 0000.0001)  cg2d: iter=    65 ; resid.=  1.32983505344666E-06
(PID.TID 0000.0001)  cg2d: iter=    66 ; resid.=  1.19778865040288E-06
(PID.TID 0000.0001)  cg2d: iter=    67 ; resid.=  1.00054968802040E-06
(PID.TID 0000.0001)  cg2d: iter=    68 ; resid.=  8.47076590342313E-07
(PID.TID 0000.0001)  cg2d: iter=    69 ; resid.=  6.29515425233278E-07
(PID.TID 0000.0001)  cg2d: iter=    70 ; resid.=  4.67544982199268E-07
(PID.TID 0000.0001)  cg2d: iter=    71 ; resid.=  4.07279599992228E-07
(PID.TID 0000.0001)  cg2d: iter=    72 ; resid.=  3.64366775402767E-07
(PID.TID 0000.0001)  cg2d: iter=    73 ; resid.=  3.31823974370951E-07
(PID.TID 0000.0001)  cg2d: iter=    74 ; resid.=  2.80126059445529E-07
(PID.TID 0000.0001)  cg2d: iter=    75 ; resid.=  2.32090577405190E-07
(PID.TID 0000.0001)  cg2d: iter=    76 ; resid.=  1.90209613962321E-07
(PID.TID 0000.0001)  cg2d: iter=    77 ; resid.=  1.65094055826903E-07
(PID.TID 0000.0001)  cg2d: iter=    78 ; resid.=  1.36415298450927E-07
(PID.TID 0000.0001)  cg2d: iter=    79 ; resid.=  1.14145924675661E-07
(PID.TID 0000.0001)  cg2d: iter=    80 ; resid.=  9.00247049314838E-08
(PID.TID 0000.0001)  cg2d: iter=    81 ; resid.=  6.96473464419337E-08
(PID.TID 0000.0001)  cg2d: iter=    82 ; resid.=  5.46123152312299E-08
(PID.TID 0000.0001)  cg2d: iter=    83 ; resid.=  3.91370263083553E-08
(PID.TID 0000.0001)  cg2d: iter=    84 ; resid.=  2.99892372956287E-08
(PID.TID 0000.0001)  cg2d: iter=    85 ; resid.=  2.31873104276292E-08
(PID.TID 0000.0001)  cg2d: iter=    86 ; resid.=  1.82911405400341E-08
(PID.TID 0000.0001)  cg2d: iter=    87 ; resid.=  1.51615098112196E-08
(PID.TID 0000.0001)  cg2d: iter=    88 ; resid.=  1.23729805856279E-08
(PID.TID 0000.0001)  cg2d: iter=    89 ; resid.=  1.06659068461679E-08
(PID.TID 0000.0001)  cg2d: iter=    90 ; resid.=  8.41101726137053E-09
(PID.TID 0000.0001)  cg2d: iter=    91 ; resid.=  6.13044503515979E-09
(PID.TID 0000.0001)  cg2d: iter=    92 ; resid.=  4.42760440571954E-09
(PID.TID 0000.0001)  cg2d: iter=    93 ; resid.=  3.26639900289755E-09
(PID.TID 0000.0001)  cg2d: iter=    94 ; resid.=  2.40528595809223E-09
(PID.TID 0000.0001)  cg2d: iter=    95 ; resid.=  1.94573055263078E-09
(PID.TID 0000.0001)  cg2d: iter=    96 ; resid.=  1.54877667375843E-09
(PID.TID 0000.0001)  cg2d: iter=    97 ; resid.=  1.23350740268660E-09
(PID.TID 0000.0001)  cg2d: iter=    98 ; resid.=  9.33523249956165E-10
(PID.TID 0000.0001)  cg2d: iter=    99 ; resid.=  7.92920455997877E-10
(PID.TID 0000.0001)  cg2d: iter=   100 ; resid.=  7.33594694585378E-10
(PID.TID 0000.0001)  cg2d: iter=   101 ; resid.=  6.26747658301055E-10
(PID.TID 0000.0001)  cg2d: iter=   102 ; resid.=  4.82575408976597E-10
(PID.TID 0000.0001)  cg2d: iter=   103 ; resid.=  3.77789797810753E-10
(PID.TID 0000.0001)  cg2d: iter=   104 ; resid.=  3.22336489332880E-10
(PID.TID 0000.0001)  cg2d: iter=   105 ; resid.=  2.56355193681938E-10
(PID.TID 0000.0001)  cg2d: iter=   106 ; resid.=  2.06819148927497E-10
(PID.TID 0000.0001)  cg2d: iter=   107 ; resid.=  1.67770775038411E-10
(PID.TID 0000.0001)  cg2d: iter=   108 ; resid.=  1.36278900314779E-10
(PID.TID 0000.0001)  cg2d: iter=   109 ; resid.=  1.09178604472140E-10
(PID.TID 0000.0001)  cg2d: iter=   110 ; resid.=  8.96235137797271E-11
(PID.TID 0000.0001)  cg2d: iter=   111 ; resid.=  7.74713874667759E-11
(PID.TID 0000.0001)  cg2d: iter=   112 ; resid.=  5.79462114394794E-11
(PID.TID 0000.0001)  cg2d: iter=   113 ; resid.=  4.13055362593902E-11
(PID.TID 0000.0001)  cg2d: iter=   114 ; resid.=  3.12140523039097E-11
(PID.TID 0000.0001)  cg2d: iter=   115 ; resid.=  2.46121518337124E-11
(PID.TID 0000.0001)  cg2d: iter=   116 ; resid.=  1.82530837412565E-11
(PID.TID 0000.0001)  cg2d: iter=   117 ; resid.=  1.39780387605729E-11
(PID.TID 0000.0001)  cg2d: iter=   118 ; resid.=  1.08244773710814E-11
(PID.TID 0000.0001)  cg2d: iter=   119 ; resid.=  8.52049366974981E-12
(PID.TID 0000.0001)  cg2d: iter=   120 ; resid.=  6.19172914943017E-12
(PID.TID 0000.0001)  cg2d: iter=   121 ; resid.=  4.85233264501446E-12
(PID.TID 0000.0001)  cg2d: iter=   122 ; resid.=  3.87129795716447E-12
(PID.TID 0000.0001)  cg2d: iter=   123 ; resid.=  2.74989792823164E-12
(PID.TID 0000.0001)  cg2d: iter=   124 ; resid.=  1.78570938279720E-12
(PID.TID 0000.0001)  cg2d: iter=   125 ; resid.=  1.18607812153776E-12
(PID.TID 0000.0001)  cg2d: iter=   126 ; resid.=  8.92145067208853E-13
(PID.TID 0000.0001)  cg2d: iter=   127 ; resid.=  6.43493490122364E-13
(PID.TID 0000.0001)  cg2d: iter=   128 ; resid.=  4.75427009721788E-13
(PID.TID 0000.0001)  cg2d: iter=   129 ; resid.=  3.56559340407346E-13
(PID.TID 0000.0001)  cg2d: iter=   130 ; resid.=  2.86651308894670E-13
(PID.TID 0000.0001)  cg2d: iter=   131 ; resid.=  2.22752287383720E-13
(PID.TID 0000.0001)  cg2d: iter=   132 ; resid.=  1.74601419770248E-13
(PID.TID 0000.0001)  cg2d: iter=   133 ; resid.=  1.31812833993236E-13
(PID.TID 0000.0001)  cg2d: iter=   134 ; resid.=  1.02732083160376E-13
(PID.TID 0000.0001)  cg2d: iter=   135 ; resid.=  8.14027419905832E-14
DEBUG_STATS_RL:    cg2d_x (SOLVE_FOR_PRESSURE)  min= -1.67883554081375E+01
DEBUG_STATS_RL:    cg2d_x (SOLVE_FOR_PRESSURE)  max=  9.12815838519445E+00
DEBUG_STATS_RL:    cg2d_x (SOLVE_FOR_PRESSURE) mean= -1.72384380870411E+00
DEBUG_STATS_RL:    cg2d_x (SOLVE_FOR_PRESSURE) S.D.=  6.83833211308190E+00
(PID.TID 0000.0001)      cg2d_init_res =   4.14793993029179E-01
(PID.TID 0000.0001)      cg2d_iters(min,last) =      -1     135
(PID.TID 0000.0001)      cg2d_last_res =   8.14027419905832E-14
(PID.TID 0000.0001) // =======================================================
(PID.TID 0000.0001) // Begin MONITOR dynamic field statistics
(PID.TID 0000.0001) // =======================================================
(PID.TID 0000.0001) %MON time_tsnumber                =                    40
(PID.TID 0000.0001) %MON time_secondsf                =   3.4560000000000E+06
(PID.TID 0000.0001) %MON dynstat_eta_max              =   9.3049524823600E-01
(PID.TID 0000.0001) %MON dynstat_eta_min              =  -1.7113512138775E+00
(PID.TID 0000.0001) %MON dynstat_eta_mean             =  -3.0010293481423E-03
(PID.TID 0000.0001) %MON dynstat_eta_sd               =   6.1779618172529E-01
(PID.TID 0000.0001) %MON dynstat_eta_del2             =   2.1767756521341E-03
(PID.TID 0000.0001) %MON dynstat_uvel_max             =   1.4697029717059E-01
(PID.TID 0000.0001) %MON dynstat_uvel_min             =  -1.5407970974458E-01
(PID.TID 0000.0001) %MON dynstat_uvel_mean            =   1.4035699519716E-03
(PID.TID 0000.0001) %MON dynstat_uvel_sd              =   1.4915229522930E-02
(PID.TID 0000.0001) %MON dynstat_uvel_del2            =   8.7523514361230E-05
(PID.TID 0000.0001) %MON dynstat_vvel_max             =   1.1901802942659E-01
(PID.TID 0000.0001) %MON dynstat_vvel_min             =  -1.1372724851458E-01
(PID.TID 0000.0001) %MON dynstat_vvel_mean            =  -1.9775100965426E-05
(PID.TID 0000.0001) %MON dynstat_vvel_sd              =   9.3781846813021E-03
(PID.TID 0000.0001) %MON dynstat_vvel_del2            =   8.0256867473423E-05
(PID.TID 0000.0001) %MON dynstat_wvel_max             =   8.9238658844129E-05
(PID.TID 0000.0001) %MON dynstat_wvel_min             =  -1.2845830329831E-04
(PID.TID 0000.0001) %MON dynstat_wvel_mean            =   2.7466965152721E-23
(PID.TID 0000.0001) %MON dynstat_wvel_sd              =   1.4673562079450E-05
(PID.TID 0000.0001) %MON dynstat_wvel_del2            =   1.5197025257560E-07
(PID.TID 0000.0001) %MON dynstat_theta_max            =   3.0195955481068E+01
(PID.TID 0000.0001) %MON dynstat_theta_min            =  -1.9994229291135E+00
(PID.TID 0000.0001) %MON dynstat_theta_mean           =   3.6318632780703E+00
(PID.TID 0000.0001) %MON dynstat_theta_sd             =   4.4191473635210E+00
(PID.TID 0000.0001) %MON dynstat_theta_del2           =   4.7419519909884E-03
(PID.TID 0000.0001) %MON dynstat_salt_max             =   3.7466023651574E+01
(PID.TID 0000.0001) %MON dynstat_salt_min             =   2.9832197565240E+01
(PID.TID 0000.0001) %MON dynstat_salt_mean            =   3.4727996574535E+01
(PID.TID 0000.0001) %MON dynstat_salt_sd              =   2.9634117801813E-01
(PID.TID 0000.0001) %MON dynstat_salt_del2            =   9.8598522173288E-04
(PID.TID 0000.0001) %MON dynstat_sst_max              =   3.0195955481068E+01
(PID.TID 0000.0001) %MON dynstat_sst_min              =  -1.9994229291135E+00
(PID.TID 0000.0001) %MON dynstat_sst_mean             =   1.8844895352565E+01
(PID.TID 0000.0001) %MON dynstat_sst_sd               =   9.0151101439635E+00
(PID.TID 0000.0001) %MON dynstat_sst_del2             =   2.6931852864203E-02
(PID.TID 0000.0001) %MON dynstat_sss_max              =   3.7439809209865E+01
(PID.TID 0000.0001) %MON dynstat_sss_min              =   2.9832197565240E+01
(PID.TID 0000.0001) %MON dynstat_sss_mean             =   3.4854238198160E+01
(PID.TID 0000.0001) %MON dynstat_sss_sd               =   9.7671653378420E-01
(PID.TID 0000.0001) %MON dynstat_sss_del2             =   7.8576613173074E-03
(PID.TID 0000.0001) %MON forcing_qnet_max             =   3.6657749633789E+02
(PID.TID 0000.0001) %MON forcing_qnet_min             =  -1.7427108459473E+02
(PID.TID 0000.0001) %MON forcing_qnet_mean            =  -1.4474705983364E+01
(PID.TID 0000.0001) %MON forcing_qnet_sd              =   8.5215174338696E+01
(PID.TID 0000.0001) %MON forcing_qnet_del2            =   9.5536523035188E-01
(PID.TID 0000.0001) %MON forcing_qsw_max              =   0.0000000000000E+00
(PID.TID 0000.0001) %MON forcing_qsw_min              =   0.0000000000000E+00
(PID.TID 0000.0001) %MON forcing_qsw_mean             =   0.0000000000000E+00
(PID.TID 0000.0001) %MON forcing_qsw_sd               =   0.0000000000000E+00
(PID.TID 0000.0001) %MON forcing_qsw_del2             =   0.0000000000000E+00
(PID.TID 0000.0001) %MON forcing_empmr_max            =   7.4636085400925E-05
(PID.TID 0000.0001) %MON forcing_empmr_min            =  -7.8067418485261E-05
(PID.TID 0000.0001) %MON forcing_empmr_mean           =   9.3931459634963E-07
(PID.TID 0000.0001) %MON forcing_empmr_sd             =   2.8013374744488E-05
(PID.TID 0000.0001) %MON forcing_empmr_del2           =   3.5400124581310E-07
(PID.TID 0000.0001) %MON forcing_fu_max               =   2.9631257653236E-01
(PID.TID 0000.0001) %MON forcing_fu_min               =  -2.0577280819416E-01
(PID.TID 0000.0001) %MON forcing_fu_mean              =   1.7304940323822E-02
(PID.TID 0000.0001) %MON forcing_fu_sd                =   9.1389471133942E-02
(PID.TID 0000.0001) %MON forcing_fu_del2              =   7.0083075453383E-04
(PID.TID 0000.0001) %MON forcing_fv_max               =   1.8891317546368E-01
(PID.TID 0000.0001) %MON forcing_fv_min               =  -1.8064786195755E-01
(PID.TID 0000.0001) %MON forcing_fv_mean              =  -6.8251595006693E-03
(PID.TID 0000.0001) %MON forcing_fv_sd                =   4.4564502921920E-02
(PID.TID 0000.0001) %MON forcing_fv_del2              =   4.9975827974748E-04
(PID.TID 0000.0001) %MON trAdv_CFL_u_max              =   4.6939839509149E-02
(PID.TID 0000.0001) %MON trAdv_CFL_v_max              =   2.4013615219634E-02
(PID.TID 0000.0001) %MON trAdv_CFL_w_max              =   3.4496663787700E-02
(PID.TID 0000.0001) %MON advcfl_uvel_max              =   4.8578918080541E-02
(PID.TID 0000.0001) %MON advcfl_vvel_max              =   2.3123294297884E-02
(PID.TID 0000.0001) %MON advcfl_wvel_max              =   2.9611139575037E-02
(PID.TID 0000.0001) %MON advcfl_W_hf_max              =   3.4898843070580E-02
(PID.TID 0000.0001) %MON pe_b_mean                    =   4.8840700880700E-04
(PID.TID 0000.0001) %MON ke_max                       =   1.4890894956974E-02
(PID.TID 0000.0001) %MON ke_mean                      =   1.4144874132263E-04
(PID.TID 0000.0001) %MON ke_vol                       =   1.3226782436723E+18
(PID.TID 0000.0001) %MON vort_r_min                   =  -4.4922518547215E-07
(PID.TID 0000.0001) %MON vort_r_max                   =   4.4354387904297E-07
(PID.TID 0000.0001) %MON vort_a_mean                  =  -2.5274806864654E-05
(PID.TID 0000.0001) %MON vort_a_sd                    =   7.3604532581564E-05
(PID.TID 0000.0001) %MON vort_p_mean                  =  -3.1845655128161E-05
(PID.TID 0000.0001) %MON vort_p_sd                    =   1.3162456524221E-04
(PID.TID 0000.0001) %MON surfExpan_theta_mean         =   3.6553975937848E-07
(PID.TID 0000.0001) %MON surfExpan_salt_mean          =  -2.5528806328198E-08
(PID.TID 0000.0001) // =======================================================
(PID.TID 0000.0001) // End MONITOR dynamic field statistics
(PID.TID 0000.0001) // =======================================================
(PID.TID 0000.0001) // =======================================================
(PID.TID 0000.0001) // Field Current uVel   at iteration         40
(PID.TID 0000.0001) // CMIN =         -1.540797097445797E-01
(PID.TID 0000.0001) // CMAX =          1.469702971705931E-01
(PID.TID 0000.0001) // CINT =          1.115000025611751E-02
(PID.TID 0000.0001) // SYMBOLS (CMIN->CMAX): -abcdefghijklmnopqrstuvwxyz+
(PID.TID 0000.0001) //                  0.0: .
(PID.TID 0000.0001) // RANGE I (Lo:Hi:Step):(     1:    90:     1)
(PID.TID 0000.0001) // RANGE J (Lo:Hi:Step):(    40:     1:    -1)
(PID.TID 0000.0001) // RANGE K (Lo:Hi:Step):(   1:   1:   1)
(PID.TID 0000.0001) // =======================================================
(PID.TID 0000.0001) K =   1
(PID.TID 0000.0001)                I=10      I=20      I=30      I=40      I=50      I=60      I=70      I=80      I=90
(PID.TID 0000.0001) |--J--|123456789|123456789|123456789|123456789|123456789|123456789|123456789|123456789|123456789|
(PID.TID 0000.0001)     40 mnnmm..mmnnnnnnnnnn...................................................................mmmm
(PID.TID 0000.0001)     39 nooonnmmmmmmnn....n......................................................nnn.........mlmmm
(PID.TID 0000.0001)     38 opqpooonnnnnn............................................................nmmn.......lllmno
(PID.TID 0000.0001)     37 pqp...................................................................n....lm....mmlm..oop
(PID.TID 0000.0001)     36 qp..........................................mmm.....................nnnnnnnlkl..mmmnoopppq
(PID.TID 0000.0001)     35 po..................................mmm...mmkkkm....nnnn............nn.....nmmnmmopqqqrrqp
(PID.TID 0000.0001)     34 ....................................mll..mmmllll..nnnnonn...................oooprsssstsq..
(PID.TID 0000.0001)     33 .....................................mnnmmnnnnnoooopqqqponm..................nprtvvutsron.
(PID.TID 0000.0001)     32 .....................................mnnnooppppppppqqqqppoo.................ppqqrttsrqppo.
(PID.TID 0000.0001)     31 .....................................lnnooppppppppppppppppp...............psussrrrrqppoo..
(PID.TID 0000.0001)     30 ....................................oooooppppooopoooooooooo.............ppppppqqqqqpoooo..
(PID.TID 0000.0001)     29 ..................................noppppooooooonooooonooonnn............rpponoooopponnnn..
(PID.TID 0000.0001)     28 ................................noponnnnnnmnnonnnnoooooponnnn..........oponnnnnnoooonnnn..
(PID.TID 0000.0001)     27 ...............m...............pqponnnnmnonnnnnnoopppppponmmmm....nnn..qpppoonnooooonm....
(PID.TID 0000.0001)     26 ...............nn............moopnllllllnommmmmmnnnnnnnnmlkklmmn..nnpppqpoponnnnonnmlk....
(PID.TID 0000.0001)     25 ...............nmm....nn....killmiffffhhijiiiiiijjjjiiihggghjklmn....mmljlkkkjiijjihhi....
(PID.TID 0000.0001)     24 .............jkjjjl..lll....jj..jd---abbccccdddefggfeedcacceghijjjkl..ihhgefffefggfefg....
(PID.TID 0000.0001)     23 .............geffhi..hij....il...fbaa-aababcddeghhihghihggghhhihgghij.....gehfefffghij....
(PID.TID 0000.0001)     22 m............ecddegigggj....l..lfjihfffffeffhijkkklllmoonlkkkkmmjjkjkl.......jhffgilnmoopn
(PID.TID 0000.0001)     21 lml.........ihgffehjjllon......qmonmkkkkkjjklkllkkmlmmonmmlklnoolllkln.........jhikmnnmopm
(PID.TID 0000.0001)     20 lnl........klnnnlkkmnoopn.........ononmmnnnoonmmlmmlmlmlllkklnnnklljjl..........lijllllnom
(PID.TID 0000.0001)     19 nml........mloqqolkmmmmlllm....pp......mnqrqqpppooolmmllkjiijjiihjjiij............jjkkmmkk
(PID.TID 0000.0001)     18 kll........lfiihgegiiihhjklnpppoo....oqnpqqqqqqppoponmllkjhhgfeffghhhil...........kijklkii
(PID.TID 0000.0001)     17 fhj..........ifcbcfhhhiijklnpqp......opopoonnnnnnnoponlkkjhgffeffeghggh..........oljihgffe
(PID.TID 0000.0001)     16 deh.......p..ljhgjkllkllllmnnn........nnoonmnnmnnopponmmlkiiihgghhhihghk.........pmkigedee
(PID.TID 0000.0001)     15 gfgj.....mn..onmnnmppoppomlmn..........mnooooooopqrqqpoonnmlkjjjjjjjihhil.......npnmljhggg
(PID.TID 0000.0001)     14 jiij.....omklonooomoomoonnmlm..........nnoooppppprrrqqpoopommmlkkllkkkijk......noonmmlkjjj
(PID.TID 0000.0001)     13 klkj.....nmmmmmnnnnnmlnmnnmll..........onnooopoopqqqppppoponnonllmnmmllll.....noonommmmllk
(PID.TID 0000.0001)     12 mmmlmnmmmnnmmlllmmmmmmnnnmmmlmnnnm.....onnoppoonooooooooooonoonlmnonnmmm......pooooononnmm
(PID.TID 0000.0001)     11 pponmmnpqqqqqppooppppppppooooooponn...oonno..ppooonnnonnnooooonnoppooonm.....oppqqqqqqqppp
(PID.TID 0000.0001)     10 ssrrrsuuuvwxwvwwvvvvtssssssrrqqqppon..poooo..qrponnnooonnoopqpppqrrqqppo...popqrsssttuutts
(PID.TID 0000.0001)      9 wwvwwwxxwxyyyxyzxxxxwwwwwwvvuuttsssssrqrqp..srqqqqqpppppqqrssrrrsssrrrqo..pqqtttuuvvvwxyxw
(PID.TID 0000.0001)      8 xxyyyyxwwxxxxxwwutuuwyxxxxwwwvwwwxyzyxxwvtrsqrsstvvvvvuuvvvuutttttttsssq..opqtuvvvvvvvwxxx
(PID.TID 0000.0001)      7 uvvvutttuutuvuuutrrrtuuuuuuutuvwxyy++zzzyxwvttuuvxyyzzyxwwvuuuuuuuuuuuuvurrrstuutssssstttt
(PID.TID 0000.0001)      6 qqqppppqrrrrrrssssrqppqqrrrrrsttuuuuuuvwxyyxvvvvwwvwwwwwvuttttuuuvvvvvwwwvvwwvutsrqqqqqqqq
(PID.TID 0000.0001)      5 nnnnnooooopooooppqpoonnonnoopppqppqqqqrstuvwvuutttssrrqrrsssstttttuuuuvuutsrrqqqpppooooonn
(PID.TID 0000.0001)      4 lllllmmmmmmmmmmnnnnnmmmmkklmnnnnnnnnoonnopqqrqqqppoonnnnopqrrrrrrrrrrrqqpo...nnnnnnmmmmmml
(PID.TID 0000.0001)      3 mmllmmmmmn.............................mmmmmmnnnnmmlllmmnnnooooooooonnnnn...nllmmmmmmllmmm
(PID.TID 0000.0001)      2 ...........................................nnnonnnnnnnnnnnnnnnnn...nnn......nnnnnnnnnnn...
(PID.TID 0000.0001)      1 ..........................................................................................
(PID.TID 0000.0001) // =======================================================
(PID.TID 0000.0001) // END OF FIELD                                          =
(PID.TID 0000.0001) // =======================================================
(PID.TID 0000.0001) 
(PID.TID 0000.0001) // =======================================================
(PID.TID 0000.0001) // Field Current vVel   at iteration         40
(PID.TID 0000.0001) // CMIN =         -1.137272485145817E-01
(PID.TID 0000.0001) // CMAX =          1.190180294265926E-01
(PID.TID 0000.0001) // CINT =          8.620195479302754E-03
(PID.TID 0000.0001) // SYMBOLS (CMIN->CMAX): -abcdefghijklmnopqrstuvwxyz+
(PID.TID 0000.0001) //                  0.0: .
(PID.TID 0000.0001) // RANGE I (Lo:Hi:Step):(     1:    90:     1)
(PID.TID 0000.0001) // RANGE J (Lo:Hi:Step):(    40:     1:    -1)
(PID.TID 0000.0001) // RANGE K (Lo:Hi:Step):(   1:   1:   1)
(PID.TID 0000.0001) // =======================================================
(PID.TID 0000.0001) K =   1
(PID.TID 0000.0001)                I=10      I=20      I=30      I=40      I=50      I=60      I=70      I=80      I=90
(PID.TID 0000.0001) |--J--|123456789|123456789|123456789|123456789|123456789|123456789|123456789|123456789|123456789|
(PID.TID 0000.0001)     40 lnprp.lmnnmmml...mm..................................................................llkkk
(PID.TID 0000.0001)     39 lmnonmmmmlmnn...........................................................mmlm........lllmml
(PID.TID 0000.0001)     38 mnn.......................................................................llm......lj.nnmm
(PID.TID 0000.0001)     37 mo...................................................................mm...lll...kloon.llll
(PID.TID 0000.0001)     36 nn.........................................pqqn....................mlm....jiik.jilnonmlmnl
(PID.TID 0000.0001)     35 ...................................lmnm..oopqqon...mmoqp...................jhhjjklnonnpq..
(PID.TID 0000.0001)     34 ....................................lll.nnmnoppo.nnnopqqp...................jfiklnpppopo..
(PID.TID 0000.0001)     33 ....................................mlkllmnnoqpoppppqrqppoo.................oiknnnppommmn.
(PID.TID 0000.0001)     32 ....................................lmllmnooppoopppqrrqponn................onknonmmmlllm..
(PID.TID 0000.0001)     31 ....................................nonmnnnnmnnmnnnoppponmm..............orronnnmmmmmmnn..
(PID.TID 0000.0001)     30 ...................................opommmmlkjjkkkjklmmmmlll............qtrqnlkkkkkklmmnn..
(PID.TID 0000.0001)     29 .................................mnmljiiiihffgghghhhjkjkklll...........nomkjjjklmlllmmon..
(PID.TID 0000.0001)     28 ...............................oonljihggggfffggfggghijjklllkl.........mllkjjjjklmmlllm....
(PID.TID 0000.0001)     27 ..............mm..............rqqponmlkjjihijjiikllkkllmnnnmll...nnoo.ommmmnnmnpqpooom....
(PID.TID 0000.0001)     26 ..............ooq...........puwxvvvutssrqonnooopqqppqqrrrqqpomlm....qqpoppprqqrsssssqn....
(PID.TID 0000.0001)     25 ..............rstr...pmm...npr.zxyxwwwyxvuuttttuuvutuvuuwvtsrpnlm....suusstttuvvvusrrs....
(PID.TID 0000.0001)     24 ............mprstql.momk...npm..nquvvvxxyxvvuuttuvuttuutuvvutsqoopqp.....osustwwvsrqsu....
(PID.TID 0000.0001)     23 ............lnqssql.gikl...kp...-gklmmprsqpppooopqqqrsrstutsrqomnopqo.......mpsvtssrqq....
(PID.TID 0000.0001)     22 p...........ikmoonkifgkm......mgadffghjkjjkjjlmnprsssttuvusrolklmmnoml........pooqqrrpommo
(PID.TID 0000.0001)     21 ljj........jklkhggiiiknqo......n.ijkllmnmllmmnpqrrsutuwxwvutrpopponnoo.........lmqsstsqonl
(PID.TID 0000.0001)     20 hhi.......nnrsqlhhknopqrp......m......rrrpnpqpqrqqqsttuuuuuuuuttsrpopm...........ttsrqppqm
(PID.TID 0000.0001)     19 hhj.......ppxxyupmmoqppolkl...mll.....utqooonnnonmmnpqqqpooprrrqonnopn...........rpooonnnk
(PID.TID 0000.0001)     18 kkl.......p.ywuqnjggjlljjkklmnk.....lnonmllkkjjlmlkkmnnmjjkmmmmmkiimppo..........omklnnlll
(PID.TID 0000.0001)     17 lmm.......p.oqnkiecddijihiklmo.......nnmlkkjihhijkkklmkjhhijjjkkjhikoom.........lllllnmjkl
(PID.TID 0000.0001)     16 jkl......on.lonllkllkiijijkkm.........nnllljkkjklllmmmlkjiijjklljijjlmml........lnmkjkjiij
(PID.TID 0000.0001)     15 jjkk....kml.knnnnlkmmlklllkkl.........mnmmnmmnnnnnooooommmnnnnnmljklllmml......jmonmlmmllk
(PID.TID 0000.0001)     14 mmmk....kmnkkmooonlmnlllmlkkk.........mmmnnnnnnonooonooonoonnponnmmnmlmnm.....jkmopnnnmnnm
(PID.TID 0000.0001)     13 noon....klomlmnnnooonmmnnnmmm.........mlmnnmmmmnnnnonooonnnmmonnonmnoooo.....ljlmnonnnmnnn
(PID.TID 0000.0001)     12 nnonnkhgegklkkmnmmnnmllmmmmmmmmmnn....llmmp.klmmmmlmmnnnnmmmmmmmoommnopp.....kllklnllmllmn
(PID.TID 0000.0001)     11 mmmlhhhfdcegeehjjjijjjkkllmmllmmlmn..mkllmo.kkllmmmllmmnomlmmkkloonmmnoo....gilljjkkjkjklm
(PID.TID 0000.0001)     10 mmmmljjihghjhfghjjhgikllllmmmllmlloo.mklln..qmllmmmmmllmooonmlkmopponnon..qlgjmnmkkkjjjjkl
(PID.TID 0000.0001)      9 mmmnnnlkkkkmonmlqvqkkmnonmmmmlkkjjmonlkllo.tqmkkllllmlklmnponmmnqqqppoln.psqnmnppnmlklnmll
(PID.TID 0000.0001)      8 oooooonnnnnooppps++sonoppponmmllkkmmkjjjjnsuqnnoonmlmlmnnnoonmmoqqqppoll.rtttrrtsqommoqpoo
(PID.TID 0000.0001)      7 pponnooooooopooprw+xsppppoonnnnnnnpoljihhlorrqqrrqpnmkklmmooonmnopppppppstsstsssrrpnnoqqpp
(PID.TID 0000.0001)      6 oommmmnoonnnnnmnorttqooonllmnnnnmmoonmkjiknpqqrssrrqomkjjknppnmnopppopqrstsqqqqqpoonnopppo
(PID.TID 0000.0001)      5 nmlllllmmlklllllmnonnmlkkkkkllllkllmnnmlklmnnoqrqpppnmkkklmoonmnooooopppnn..ppoonnnmmnnnmm
(PID.TID 0000.0001)      4 kjjjjjjjjk............................nmmmmmlmnoonnmlkklmnnnnnmmmnnnnnmml...nmmmmmmmmmllll
(PID.TID 0000.0001)      3 ..........................................lkkkkllllkkkkmnnnnmlll..mllm.....mmlkkkllmmmm...
(PID.TID 0000.0001)      2 ..........................................................................................
(PID.TID 0000.0001)      1 ..........................................................................................
(PID.TID 0000.0001) // =======================================================
(PID.TID 0000.0001) // END OF FIELD                                          =
(PID.TID 0000.0001) // =======================================================
(PID.TID 0000.0001) 
(PID.TID 0000.0001) // =======================================================
(PID.TID 0000.0001) // Field Current theta  at iteration         40
(PID.TID 0000.0001) // CMIN =         -1.999422929113490E+00
(PID.TID 0000.0001) // CMAX =          3.019595548106755E+01
(PID.TID 0000.0001) // CINT =          1.192421422599298E+00
(PID.TID 0000.0001) // SYMBOLS (CMIN->CMAX): -abcdefghijklmnopqrstuvwxyz+
(PID.TID 0000.0001) //                  0.0: .
(PID.TID 0000.0001) // RANGE I (Lo:Hi:Step):(     1:    90:     1)
(PID.TID 0000.0001) // RANGE J (Lo:Hi:Step):(    40:     1:    -1)
(PID.TID 0000.0001) // RANGE K (Lo:Hi:Step):(   1:   1:   1)
(PID.TID 0000.0001) // =======================================================
(PID.TID 0000.0001) K =   1
(PID.TID 0000.0001)                I=10      I=20      I=30      I=40      I=50      I=60      I=70      I=80      I=90
(PID.TID 0000.0001) |--J--|123456789|123456789|123456789|123456789|123456789|123456789|123456789|123456789|123456789|
(PID.TID 0000.0001)     40 -bbccbaa------acdddbbbbbbbbbbbbbbbbbbbbbbbbbbbbbbbbbbbbbbbbbbbbbbbbbbbbbbbbbbbbbbbbbbaaaa-
(PID.TID 0000.0001)     39 bccddccbba----bbbddbbbbbbbbbbbbbbbbbbbbbbbbbbbbbbbbbbbbbbbbbbbbbbbbbbbbb----bbbbbbbbbaaaab
(PID.TID 0000.0001)     38 eeffeeccccbaabbbbbbbbbbbbbbbbbbbbbbbbbbbbbbbbbbbbbbbbbbbbbbbbbbbbbbbbbbb-----bbbbbbba--bcd
(PID.TID 0000.0001)     37 fggbbbbbbbbbbbbbbbbbbbbbbbbbbbbbbbbbbbbbbbbbbbbbbbbbbbbbbbbbbbbbbbbbbbbbbbaabbbbdbccebcdee
(PID.TID 0000.0001)     36 hgbbbbbbbbbbbbbbbbbbbbbbbbbbbbbbbbbbbbbbbbbcb--bbbbbbbbbbbbbbbbbbbbccccbabacbdbdefgghhhhhg
(PID.TID 0000.0001)     35 ggbbbbbbbbbbbbbbbbbbbbbbbbbbbbbbbbba---bbbbcccbabbbeeeefbbbbbbbbbbbbbbbbbbbcdeeeefghiiiihg
(PID.TID 0000.0001)     34 bbbbbbbbbbbbbbbbbbbbbbbbbbbbbbbbbbb----bbcddddddbdddeefggbbbbbbbbbbbbbbbbbbcacdefghiijjjbb
(PID.TID 0000.0001)     33 bbbbbbbbbbbbbbbbbbbbbbbbbbbbbbbbbbbb--bbcccddddeeeeefffgggibbbbbbbbbbbbbbbbbaadhijjkkkkkjb
(PID.TID 0000.0001)     32 bbbbbbbbbbbbbbbbbbbbbbbbbbbbbbbbbbbb-acccdeeeeefggggghhhhiibbbbbbbbbbbbbbbbcbbcjlllllllkkb
(PID.TID 0000.0001)     31 bbbbbbbbbbbbbbbbbbbbbbbbbbbbbbbbbbbbdefggghhiiiiiiiijjkkkkkbbbbbbbbbbbbbbfjkjikmnnnnmmlmbb
(PID.TID 0000.0001)     30 bbbbbbbbbbbbbbbbbbbbbbbbbbbbbbbbbbblkkkkkklllllllllllmmmmllbbbbbbbbbbbbmnoppppppppooonnnbb
(PID.TID 0000.0001)     29 bbbbbbbbbbbbbbbbbbbbbbbbbbbbbbbbboooooonnnnnnnnnnnnnooooonmmbbbbbbbbbbbqqqqqqqqqqqqpppoobb
(PID.TID 0000.0001)     28 bbbbbbbbbbbbbbbbbbbbbbbbbbbbbbbnpqqqqqppqqqqqqqqqqqqqqqqqponnbbbbbbbbbssrrrrsrrrrrqqqqppbb
(PID.TID 0000.0001)     27 bbbbbbbbbbbbbbuvbbbbbbbbbbbbbbrrssrssssssssssssssssssssrrqqppqbbbssstbttttttttttsssrrrbbbb
(PID.TID 0000.0001)     26 bbbbbbbbbbbbbbvuubbbbbbbbbbbttuuutuuuuuuvvuuuuuuuuuuttsssrrrrrsubttuvvvvvvvvuuuuttssrqbbbb
(PID.TID 0000.0001)     25 bbbbbbbbbbbbbbuuvwbbbwvwbbbuuvvwvvwwwwwwwwvvvvvvvvvuuuutttssttuwwbbbwwwwvvvvvvuuutsrqpbbbb
(PID.TID 0000.0001)     24 bbbbbbbbbbbbvvvvxyybwwwxbbbwwwbxxxxxxxxwwwwwwwwwwvvvvvvvuuuvvvwwwvvvbwwwwvvvvvvuuuttsrbbbb
(PID.TID 0000.0001)     23 bbbbbbbbbbbbwwwxxyybxxxxbbbxwwbbxxyyyxxxxxxxxxxxxwwxxxxxxwwxxwwwwwwxwbbbbwwwwwwwvvvvvvbbbb
(PID.TID 0000.0001)     22 wbbbbbbbbbbbxwxxyyyyxxyybbbxxbyyyzyyzyyyyyyyyyyyyxxxxxxwwwwwxwwwwwwwwwbbbbbbxxxxwxxxxyxxww
(PID.TID 0000.0001)     21 wwwbbbbbbbbxxxxxyyyyyzz++bbbbbyyzzzzzzzzzzzzyyyyyyyyyyxxwwwwxwwwwwvvvvbbbbbbbbyxxyyyyyyxxx
(PID.TID 0000.0001)     20 xwwbbbbbbbyxyyyyyzzzzzzz+bbbbbbzbzzzzz++++zzzzzzzyyzyyxyxxxxxxwwwwwwvvbbbbbbbbbyyyyyyyyxxx
(PID.TID 0000.0001)     19 wvvbbbbbbbyzzzyzzzzzzzzzzzybbbzzzbbbbb++++++zzzzzzzzyyyyxxxxxxwwwwwwvvbbbbbbbbbbbyyxxxwwwx
(PID.TID 0000.0001)     18 vutbbbbbbbzzzyyyyyyyyyyyzzzyzz+zzbbb++zz+++zzz+z+zzzzzyyyyyxxwwwvvwvvvubbbbbbbbbbyyxxwwwww
(PID.TID 0000.0001)     17 uutbbbbbbbzbyyxxxxxyyyyxyyyyyzzbbbbbzzzzzzzzzzzzzzzzzyyyyyyxxwwvvvvuuuvbbbbbbbbbyyyyxwuvvv
(PID.TID 0000.0001)     16 utsbbbbbbzzbyyxxxxxxxxxwwxxxxzbbbbbbbyyyyyyzzyzzyyyyzyyyyyyyxxwwvvvuutttbbbbbbbbyyyyxwvvvu
(PID.TID 0000.0001)     15 ttrrbbbbxyybxxxxxwwwwwwwvvvwxbbbbbbbbbxxxxxxxxxxxyxxyyxyyyyyxwwwwvuuutssrbbbbbbxxyxxyxxwvu
(PID.TID 0000.0001)     14 utrqbbbbxyxwwxwwwxwwvuuuuuuuubbbbbbbbbwwwwwwwwwwwxxxxxxwxxxxxwwwvvvutssssbbbbbwwxxxxxxwwvu
(PID.TID 0000.0001)     13 uutrbbbbwxwwwwuuuvvvvuuttttttbbbbbbbbbvvvvvvvvvvvvuuvvvvvwwxxwvvvuuuutssqbbbbvwwwwwwwwwvvu
(PID.TID 0000.0001)     12 tstsssstuuuttutssssstutrrssssqqrrqbbbbuuuutttttsssssssssstuuuttttsttssrqbbbbbuvvvutuuutttt
(PID.TID 0000.0001)     11 qppqrsssrrrrrsrqqpppprqppqpppqqqqqqbbtttsssbrrrqqrrrrrrrqrsrqqqrrrrsrrqpbbbbprttsrrrrrqqqq
(PID.TID 0000.0001)     10 mmlmnoopooooooonnnnnnnnmmmmmmnnooopobqrrqqqbpqqqqqqppppppppooopppooopppobbooppppoooooooonm
(PID.TID 0000.0001)      9 jjiijjjjjjkkjjjjjijjjjiiijjjijkllnnmmnooopbnnoooooooooooonnmmmmnmmlmmmmmbmnnnnmmllkjklkjjj
(PID.TID 0000.0001)      8 ggggggggggghiihhggghhiggghhhhijjjjkkkklmmmmllllllllmmmllllkkjjklkkkkkklkblllkkjjiihhhhgfff
(PID.TID 0000.0001)      7 ddeeeefffffffgfffffffeeeffggggghhhhhiiijkkkjjkkkkjjiiiiiijiiiiiiiiiijjjjijjjiihggffffeeeee
(PID.TID 0000.0001)      6 ccddeeeeeeeeeeeeeeeeeeefeeeedeffffffggghhiiihhiiiggfffffgggggffghhhhhhihhhhhggffeddddddddc
(PID.TID 0000.0001)      5 ddddddddddeeeeeeeeeeeeeedddeeeeeeeeeeeeffffffffffeddddddeeeeeeeffffffffffffeeeddddcccccccc
(PID.TID 0000.0001)      4 ddddddccccccccccccdccccbbbbccccccccccccdddddddcccdccccccccccdddddddddddddcbbbbbbcccccccccd
(PID.TID 0000.0001)      3 ccccbbaaaabbbbbbbbbbbbbbbbbbbbbbbbbbbbbbbbbcccbcccccccbbbbbbbbbbbbbbbbbbbbbbbaaabbcccccbbb
(PID.TID 0000.0001)      2 bbbbbbbbbbbbbbbbbbbbbbbbbbbbbbbbbbbbbbbbbbbccccbbbbbbaaaaaaaaababbaaaabbbbbaaaaabbbbbbbbbb
(PID.TID 0000.0001)      1 bbbbbbbbbbbbbbbbbbbbbbbbbbbbbbbbbbbbbbbbbbbbbbbbbbbbbbbbbbbbbbbbbbbbbbbbbbbbbbbbbbbbbbbbbb
(PID.TID 0000.0001) // =======================================================
(PID.TID 0000.0001) // END OF FIELD                                          =
(PID.TID 0000.0001) // =======================================================
(PID.TID 0000.0001) 
(PID.TID 0000.0001) // =======================================================
(PID.TID 0000.0001) // Field Current etaN   at iteration         40
(PID.TID 0000.0001) // CMIN =         -1.711351213877462E+00
(PID.TID 0000.0001) // CMAX =          9.304952482359998E-01
(PID.TID 0000.0001) // CINT =          9.784616526346157E-02
(PID.TID 0000.0001) // SYMBOLS (CMIN->CMAX): -abcdefghijklmnopqrstuvwxyz+
(PID.TID 0000.0001) //                  0.0: .
(PID.TID 0000.0001) // RANGE I (Lo:Hi:Step):(    -1:    92:     1)
(PID.TID 0000.0001) // RANGE J (Lo:Hi:Step):(    42:    -1:    -1)
(PID.TID 0000.0001) // RANGE K (Lo:Hi:Step):(   1:   1:   1)
(PID.TID 0000.0001) // =======================================================
(PID.TID 0000.0001) K =   1
(PID.TID 0000.0001)                I=8       I=18      I=28      I=38      I=48      I=58      I=68      I=78      I=88
(PID.TID 0000.0001) |--J--|101234567|901234567|901234567|901234567|901234567|901234567|901234567|901234567|901234567|9012
(PID.TID 0000.0001)     42 ............................................ccddddddeeeeeeeddddcdd..dddd.....bbbbbbbbbbaa.....
(PID.TID 0000.0001)     41 ..............................................................................................
(PID.TID 0000.0001)     40 fffeeff.iiiiiiiiiijji..................................................................gfffffe
(PID.TID 0000.0001)     39 ffffffggggggghhh...jj.....................................................kkkk........hhggffff
(PID.TID 0000.0001)     38 gggghhhhhhhgggh...........................................................kkkjj......ihggggggg
(PID.TID 0000.0001)     37 gghhi..................................................................ll...jjj...hgghg.gggghh
(PID.TID 0000.0001)     36 hhhj.........................................qrrq....................llllkkjiiii.igffgghhhhhhj
(PID.TID 0000.0001)     35 iiij.................................rrrr..qqqqqqp...rqppq...........kkk....jhhggffffggghhiiij
(PID.TID 0000.0001)     34 .....................................rqqr.rqqqqqpp.qpppppqq..................kjhggffgghhik....
(PID.TID 0000.0001)     33 h.....................................rrqqqqqpppqqqqppppppqqr.................kihhhhhijjiih...
(PID.TID 0000.0001)     32 i.....................................rrqqqqqqqqrqqqqqqqqqqqr................eijijkkkkkjjii...
(PID.TID 0000.0001)     31 ......................................qrqqqqrrrrsrrrrrrrsssrr..............jkklkkkllkkkjjj....
(PID.TID 0000.0001)     30 .....................................rssssssssstttttsssttttss............hkkmnnnonnmmllkkk....
(PID.TID 0000.0001)     29 ...................................tuuwwwvvvvvuuuuuuuutuuuutsr...........lnooppooonnmmllkk....
(PID.TID 0000.0001)     28 .................................uvwxxyyyxxxxxwwwvvvvuuuuuuutss.........nnoooooooonnmmllll....
(PID.TID 0000.0001)     27 ................ss..............yxxxyyyyyyyyyxxxwwwwwvvvvuuuttss...nnnn.oooooooonnnnmmll......
(PID.TID 0000.0001)     26 ................sss...........zyyyyyyyyyyyyyyyxxxwwwwwwvvuuutttttt.ooopqpppppppoonnnmmll......
(PID.TID 0000.0001)     25 ................tstu...vuu...zyyyzzyyyyxyyyyyyyxxwwwwwvvvuuutttttuu...pqqqqppppoonnnnmll......
(PID.TID 0000.0001)     24 ..............tttttuv.vvvv...zyy.+zyyxxxxyyxxxxxwwwwwvvvuuuuuuuuuuuuuu.qqqqppppooonnnmmm......
(PID.TID 0000.0001)     23 ..............tuttuuu.vvuv...zzy..+yyxxxxxxxxxxxxxxwwwvvvuuuuuuuuuuuuuu....ppqppooonnnnn......
(PID.TID 0000.0001)     22 oop...........ttttuuuuvvvv...zz.xxyyyyyyyyyyxxxxxxxwwwwwvvuuuuuuuuuuuuuu......qppoooooopoooop.
(PID.TID 0000.0001)     21 ooooo........tttttuuuvvvwww.....xxyyxxxyyyyyyyxxxwwwwwwwvvvuuuuuuutttuuu........pppppooooooooo
(PID.TID 0000.0001)     20 ooooo.......uuuuuuuvvvwwwww......x.xwwxxxyyyyxxxxwwwwwwwwvvvvvuuuuuuttuu.........ppppppooooooo
(PID.TID 0000.0001)     19 ooooo.......vvvvvvvvwvwwwwwww...xxx.....yyyyyyyyxxyxxxwwwwwwvvvvuuuuttuu...........qqpppoooooo
(PID.TID 0000.0001)     18 oonnn.......vwwvvvvvvvwwvvwvvwwwwxx...zzzyyyyyyyxxyxxxxwwwwvvvvvuuuuttttt..........rqqppoooonn
(PID.TID 0000.0001)     17 oonnn.......w.ywvvvvvvvwwvvvwwwww.....zzyyyxxxxxxxxxxxxxwwwwwvvvuuuuuuttu.........srqqpooooonn
(PID.TID 0000.0001)     16 ooonn......yw.zxwwwvwwvvwvvvvvvv.......zyyyxxxxxxxxxxxxxwwwwwwvvvvuuuuutts........rrqqqppoooon
(PID.TID 0000.0001)     15 ppoonn....yxv.yyxxwwxxvvwvvuuuv.........yxxxxxxxxxxxxxxxwwxxxwwwwvvvuuuttsr......rrrrrrqqpppoo
(PID.TID 0000.0001)     14 qqppon....xxvvxwwwvvwwuuuvuttss.........xwwwwwwwwwwwwwwwwxxxxxxxwvvvvvuuuss.....qqrrrrrrrrqqpp
(PID.TID 0000.0001)     13 rrqppo....wxwwwvvvuuvuuuvvutsss.........vwvvvvvuuuuuuuuvvvwwwxxxwwwvvvuutss....pqqqrqqrrssrrqp
(PID.TID 0000.0001)     12 rrqqponnqsuwwvvvvvuuutuuuutsssssssss....uuuuutttttttttttuuuuvvvvvwvvuuutts.....pppqqqqqrrrrrqq
(PID.TID 0000.0001)     11 qpppoopqrrsuuuvvvuutttttttssssrssssst..sttttt.sssssrssttttttuutuvvvuttttss....mooooooopppqqppp
(PID.TID 0000.0001)     10 onnnnmmnnnopqqqrsrrqqqqqqqrqqqqqqqrsss.rssttt.prrrssssstttttttstuuutssssss..jilnmmllmmmnnnonnn
(PID.TID 0000.0001)      9 kkkkkkkjjjjkllllmmmlklmnnnnnooooppqrsrqqrsst.pppqrsrrsssstttssssttssrrrrrr.llkkllkjjiiijjjkkkk
(PID.TID 0000.0001)      8 ffgggggfffffgiiiiikighijjjjjkkklmmnoppppqqrttqppppqqqqrrrrrrrqqrrsrqqqqqru.mljjjihgfffffffffgg
(PID.TID 0000.0001)      7 ccccccccdddeeeffgghhfeeeffggghhiiijjjjjjlmnpponnnnmmmmmnooononnoopppooooopomlkihgfedddddcccccc
(PID.TID 0000.0001)      6 aaa-aabbcccccdddeeffedcddddeeffffffffffggijlllkkkjjiihhhijkllllllmmmlllllkkjhgfedcccbbbbbbaaa-
(PID.TID 0000.0001)      5 -----aabbbbbbbbcccddccbbcbbccddddddddeeddefggghhggffeeeefghhiiiiiiiihhhhggfedcbbaaaaaaaaa-----
(PID.TID 0000.0001)      4 -----aaaaabbbbbcccccbbbbbbcccccddddddccccddddddeedddddddeefffffffffffeeedddd..-aaaaaaaa-------
(PID.TID 0000.0001)      3 aaaaabbbbbbb............................ccccccddddddddddeeeeddddddddddddded..baaaaaaaaaaaaaaaa
(PID.TID 0000.0001)      2 ............................................ccddddddeeeeeeeddddcdd..dddd.....bbbbbbbbbbaa.....
(PID.TID 0000.0001)      1 ..............................................................................................
(PID.TID 0000.0001)      0 fffeeff.iiiiiiiiiijji..................................................................gfffffe
(PID.TID 0000.0001)     -1 ffffffggggggghhh...jj.....................................................kkkk........hhggffff
(PID.TID 0000.0001) // =======================================================
(PID.TID 0000.0001) // END OF FIELD                                          =
(PID.TID 0000.0001) // =======================================================
(PID.TID 0000.0001) 
(PID.TID 0000.0001)  MDS_WRITE_FIELD: it,rec,kS,kL,kH=      40     1  15   1  15 file=U.0000000040
(PID.TID 0000.0001)  MDS_WRITE_FIELD: it,rec,kS,kL,kH=      40     1  15   1  15 file=V.0000000040
(PID.TID 0000.0001)  MDS_WRITE_FIELD: it,rec,kS,kL,kH=      40     1  15   1  15 file=T.0000000040
(PID.TID 0000.0001)  MDS_WRITE_FIELD: it,rec,kS,kL,kH=      40     1  15   1  15 file=S.0000000040
(PID.TID 0000.0001)  MDS_WRITE_FIELD: it,rec,kS,kL,kH=      40     1   1   1   1 file=Eta.0000000040
(PID.TID 0000.0001)  MDS_WRITE_FIELD: it,rec,kS,kL,kH=      40     1  15   1  15 file=W.0000000040
(PID.TID 0000.0001)  MDS_WRITE_FIELD: it,rec,kS,kL,kH=      40     1  15   1  15 file=PH.0000000040
(PID.TID 0000.0001)  MDS_WRITE_FIELD: it,rec,kS,kL,kH=      40     1   1   1   1 file=PHL.0000000040
(PID.TID 0000.0001)  MDS_WRITE_FIELD: it,rec,kS,kL,kH=      40     1   1   1   1 file=ETAtave.0000000040
(PID.TID 0000.0001)  MDS_WRITE_FIELD: it,rec,kS,kL,kH=      40     1  15   1  15 file=Ttave.0000000040
(PID.TID 0000.0001)  MDS_WRITE_FIELD: it,rec,kS,kL,kH=      40     1  15   1  15 file=Stave.0000000040
(PID.TID 0000.0001)  MDS_WRITE_FIELD: it,rec,kS,kL,kH=      40     1  15   1  15 file=uVeltave.0000000040
(PID.TID 0000.0001)  MDS_WRITE_FIELD: it,rec,kS,kL,kH=      40     1  15   1  15 file=vVeltave.0000000040
(PID.TID 0000.0001)  MDS_WRITE_FIELD: it,rec,kS,kL,kH=      40     1  15   1  15 file=wVeltave.0000000040
(PID.TID 0000.0001)  MDS_WRITE_FIELD: it,rec,kS,kL,kH=      40     1   1   1   1 file=Eta2tave.0000000040
(PID.TID 0000.0001)  MDS_WRITE_FIELD: it,rec,kS,kL,kH=      40     1  15   1  15 file=UTtave.0000000040
(PID.TID 0000.0001)  MDS_WRITE_FIELD: it,rec,kS,kL,kH=      40     1  15   1  15 file=VTtave.0000000040
(PID.TID 0000.0001)  MDS_WRITE_FIELD: it,rec,kS,kL,kH=      40     1  15   1  15 file=WTtave.0000000040
(PID.TID 0000.0001)  MDS_WRITE_FIELD: it,rec,kS,kL,kH=      40     1  15   1  15 file=UStave.0000000040
(PID.TID 0000.0001)  MDS_WRITE_FIELD: it,rec,kS,kL,kH=      40     1  15   1  15 file=VStave.0000000040
(PID.TID 0000.0001)  MDS_WRITE_FIELD: it,rec,kS,kL,kH=      40     1  15   1  15 file=WStave.0000000040
(PID.TID 0000.0001)  MDS_WRITE_FIELD: it,rec,kS,kL,kH=      40     1  15   1  15 file=TTtave.0000000040
(PID.TID 0000.0001)  MDS_WRITE_FIELD: it,rec,kS,kL,kH=      40     1  15   1  15 file=UUtave.0000000040
(PID.TID 0000.0001)  MDS_WRITE_FIELD: it,rec,kS,kL,kH=      40     1  15   1  15 file=VVtave.0000000040
(PID.TID 0000.0001)  MDS_WRITE_FIELD: it,rec,kS,kL,kH=      40     1  15   1  15 file=UVtave.0000000040
(PID.TID 0000.0001)  MDS_WRITE_FIELD: it,rec,kS,kL,kH=      40     1  15   1  15 file=Tdiftave.0000000040
(PID.TID 0000.0001)  MDS_WRITE_FIELD: it,rec,kS,kL,kH=      40     1  15   1  15 file=PhHytave.0000000040
(PID.TID 0000.0001)  MDS_WRITE_FIELD: it,rec,kS,kL,kH=      40     1   1   1   1 file=PHLtave.0000000040
(PID.TID 0000.0001)  MDS_WRITE_FIELD: it,rec,kS,kL,kH=      40     1   1   1   1 file=uFluxtave.0000000040
(PID.TID 0000.0001)  MDS_WRITE_FIELD: it,rec,kS,kL,kH=      40     1   1   1   1 file=vFluxtave.0000000040
(PID.TID 0000.0001)  MDS_WRITE_FIELD: it,rec,kS,kL,kH=      40     1   1   1   1 file=tFluxtave.0000000040
(PID.TID 0000.0001)  MDS_WRITE_FIELD: it,rec,kS,kL,kH=      40     1   1   1   1 file=sFluxtave.0000000040
(PID.TID 0000.0001)  MDS_WRITE_FIELD: it,rec,kS,kL,kH=      40     1   1   1   1 file=PHL2tave.0000000040
(PID.TID 0000.0001)  MDS_WRITE_FIELD: it,rec,kS,kL,kH=      40     1  15   1  15 file=Convtave.0000000040
(PID.TID 0000.0001) // Time-average data written, t-step        40
(PID.TID 0000.0001) 
(PID.TID 0000.0001)  MDS_WRITE_FIELD: it,rec,kS,kL,kH=      40     1  15   1  15 file=GM_Kwx-T.0000000040
(PID.TID 0000.0001)  MDS_WRITE_FIELD: it,rec,kS,kL,kH=      40     1  15   1  15 file=GM_Kwy-T.0000000040
(PID.TID 0000.0001)  MDS_WRITE_FIELD: it,rec,kS,kL,kH=      40     1  15   1  15 file=GM_Kwz-T.0000000040
(PID.TID 0000.0001)  MDS_WRITE_FIELD: it,rec,kS,kL,kH=      40     1  15   1  15 file=pickup_cd.0000000040
(PID.TID 0000.0001)  MDS_WRITE_FIELD: it,rec,kS,kL,kH=      40     2  15   1  15 file=pickup_cd.0000000040
(PID.TID 0000.0001)  MDS_WRITE_FIELD: it,rec,kS,kL,kH=      40     3  15   1  15 file=pickup_cd.0000000040
(PID.TID 0000.0001)  MDS_WRITE_FIELD: it,rec,kS,kL,kH=      40     4  15   1  15 file=pickup_cd.0000000040
(PID.TID 0000.0001)  MDS_WRITE_FIELD: it,rec,kS,kL,kH=      40    61   1   1   1 file=pickup_cd.0000000040
(PID.TID 0000.0001)  MDS_WRITE_FIELD: it,rec,kS,kL,kH=      40    -1  15   1  15 file=pickup.0000000040
(PID.TID 0000.0001)  MDS_WRITE_FIELD: it,rec,kS,kL,kH=      40    -2  15   1  15 file=pickup.0000000040
(PID.TID 0000.0001)  MDS_WRITE_FIELD: it,rec,kS,kL,kH=      40    -3  15   1  15 file=pickup.0000000040
(PID.TID 0000.0001)  MDS_WRITE_FIELD: it,rec,kS,kL,kH=      40    -4  15   1  15 file=pickup.0000000040
(PID.TID 0000.0001)  MDS_WRITE_FIELD: it,rec,kS,kL,kH=      40    -5  15   1  15 file=pickup.0000000040
(PID.TID 0000.0001)  MDS_WRITE_FIELD: it,rec,kS,kL,kH=      40    -6  15   1  15 file=pickup.0000000040
(PID.TID 0000.0001)  MDS_WRITE_FIELD: it,rec,kS,kL,kH=      40    -7  15   1  15 file=pickup.0000000040
(PID.TID 0000.0001)  MDS_WRITE_FIELD: it,rec,kS,kL,kH=      40    -8  15   1  15 file=pickup.0000000040
(PID.TID 0000.0001)  MDS_WRITE_FIELD: it,rec,kS,kL,kH=      40  -121   1   1   1 file=pickup.0000000040
(PID.TID 0000.0001)  MDS_WRITE_FIELD: it,rec,kS,kL,kH=      40  -122   1   1   1 file=pickup.0000000040
(PID.TID 0000.0001)  MDS_WRITE_FIELD: it,rec,kS,kL,kH=      40  -123   1   1   1 file=pickup.0000000040
(PID.TID 0000.0001) %CHECKPOINT        40 0000000040
 EXTERNAL_FIELDS_LOAD,        40 : iP,iLd,i0,i1=    1    2    1    2 ; Wght=  0.1666666667  0.8333333333
 EXTERNAL_FIELDS_LOAD: (fu0,1),fu,fv= -3.5633E-02 -1.4435E-02 -1.7968E-02 -2.4239E-02
 EXTERNAL_FIELDS_LOAD: SST,SSS,Q,E-P= -2.8348E-01  3.4470E+01  2.4470E+02  8.9204E-06
DEBUG_STATS_RL:          Uvel (THERMODYNAMICS)  min= -1.54079709744580E-01
DEBUG_STATS_RL:          Uvel (THERMODYNAMICS)  max=  1.46970297170593E-01
DEBUG_STATS_RL:          Uvel (THERMODYNAMICS) mean=  3.36469671443943E-03
DEBUG_STATS_RL:          Uvel (THERMODYNAMICS) S.D.=  2.37920449796195E-02
DEBUG_STATS_RL:          Vvel (THERMODYNAMICS)  min= -1.13727248514582E-01
DEBUG_STATS_RL:          Vvel (THERMODYNAMICS)  max=  1.19018029426593E-01
DEBUG_STATS_RL:          Vvel (THERMODYNAMICS) mean=  4.57862885800905E-05
DEBUG_STATS_RL:          Vvel (THERMODYNAMICS) S.D.=  1.42197114094305E-02
DEBUG_STATS_RL:          Wvel (THERMODYNAMICS)  min= -1.28458303298308E-04
DEBUG_STATS_RL:          Wvel (THERMODYNAMICS)  max=  8.92386588441290E-05
DEBUG_STATS_RL:          Wvel (THERMODYNAMICS) mean= -3.43307927947430E-07
DEBUG_STATS_RL:          Wvel (THERMODYNAMICS) S.D.=  1.28089270972047E-05
DEBUG_STATS_RL:         Theta (THERMODYNAMICS)  min= -1.99819757804180E+00
DEBUG_STATS_RL:         Theta (THERMODYNAMICS)  max=  3.02194664357352E+01
DEBUG_STATS_RL:         Theta (THERMODYNAMICS) mean=  3.22440581990049E+00
DEBUG_STATS_RL:         Theta (THERMODYNAMICS) S.D.=  5.86441567955257E+00
DEBUG_STATS_RL:          Salt (THERMODYNAMICS)  min=  9.99999999999998E-03
DEBUG_STATS_RL:          Salt (THERMODYNAMICS)  max=  3.74662335414587E+01
DEBUG_STATS_RL:          Salt (THERMODYNAMICS) mean=  1.88548440597283E+01
DEBUG_STATS_RL:          Salt (THERMODYNAMICS) S.D.=  1.73003654116136E+01
DEBUG_STATS_RL:         GtNm1 (THERMODYNAMICS)  min= -3.71781589942504E-06
DEBUG_STATS_RL:         GtNm1 (THERMODYNAMICS)  max=  2.73602134594641E-06
DEBUG_STATS_RL:         GtNm1 (THERMODYNAMICS) mean=  1.29276457924756E-08
DEBUG_STATS_RL:         GtNm1 (THERMODYNAMICS) S.D.=  2.02106718882303E-07
DEBUG_STATS_RL:         GsNm1 (THERMODYNAMICS)  min= -4.09171626207131E-07
DEBUG_STATS_RL:         GsNm1 (THERMODYNAMICS)  max=  3.24965065059004E-07
DEBUG_STATS_RL:         GsNm1 (THERMODYNAMICS) mean=  1.00507236719114E-10
DEBUG_STATS_RL:         GsNm1 (THERMODYNAMICS) S.D.=  1.79723823285242E-08
DEBUG_STATS_RL:                EtaN (DYNAMICS)  min= -1.71135121387746E+00
DEBUG_STATS_RL:                EtaN (DYNAMICS)  max=  9.30495248236000E-01
DEBUG_STATS_RL:                EtaN (DYNAMICS) mean= -1.75723120153325E-01
DEBUG_STATS_RL:                EtaN (DYNAMICS) S.D.=  6.97077687368190E-01
DEBUG_STATS_RL:                Uvel (DYNAMICS)  min= -1.54079709744580E-01
DEBUG_STATS_RL:                Uvel (DYNAMICS)  max=  1.46970297170593E-01
DEBUG_STATS_RL:                Uvel (DYNAMICS) mean=  3.36469671443943E-03
DEBUG_STATS_RL:                Uvel (DYNAMICS) S.D.=  2.37920449796195E-02
DEBUG_STATS_RL:                Vvel (DYNAMICS)  min= -1.13727248514582E-01
DEBUG_STATS_RL:                Vvel (DYNAMICS)  max=  1.19018029426593E-01
DEBUG_STATS_RL:                Vvel (DYNAMICS) mean=  4.57862885800905E-05
DEBUG_STATS_RL:                Vvel (DYNAMICS) S.D.=  1.42197114094305E-02
DEBUG_STATS_RL:                Wvel (DYNAMICS)  min= -1.28458303298308E-04
DEBUG_STATS_RL:                Wvel (DYNAMICS)  max=  8.92386588441290E-05
DEBUG_STATS_RL:                Wvel (DYNAMICS) mean= -3.43307927947430E-07
DEBUG_STATS_RL:                Wvel (DYNAMICS) S.D.=  1.28089270972047E-05
DEBUG_STATS_RL:               Theta (DYNAMICS)  min= -1.99819757804180E+00
DEBUG_STATS_RL:               Theta (DYNAMICS)  max=  3.02194664357352E+01
DEBUG_STATS_RL:               Theta (DYNAMICS) mean=  3.22440581990049E+00
DEBUG_STATS_RL:               Theta (DYNAMICS) S.D.=  5.86441567955257E+00
DEBUG_STATS_RL:                Salt (DYNAMICS)  min=  9.99999999999998E-03
DEBUG_STATS_RL:                Salt (DYNAMICS)  max=  3.74662335414587E+01
DEBUG_STATS_RL:                Salt (DYNAMICS) mean=  1.88548440597283E+01
DEBUG_STATS_RL:                Salt (DYNAMICS) S.D.=  1.73003654116136E+01
DEBUG_STATS_RL:                  Gu (DYNAMICS)  min= -1.52117267095067E-01
DEBUG_STATS_RL:                  Gu (DYNAMICS)  max=  1.51371704181393E-01
DEBUG_STATS_RL:                  Gu (DYNAMICS) mean=  3.28245222769191E-03
DEBUG_STATS_RL:                  Gu (DYNAMICS) S.D.=  2.45225527836385E-02
DEBUG_STATS_RL:                  Gv (DYNAMICS)  min= -1.09672079410218E-01
DEBUG_STATS_RL:                  Gv (DYNAMICS)  max=  1.23748347753656E-01
DEBUG_STATS_RL:                  Gv (DYNAMICS) mean=  2.48040594590186E-03
DEBUG_STATS_RL:                  Gv (DYNAMICS) S.D.=  1.44222506424814E-02
DEBUG_STATS_RL:               GuNm1 (DYNAMICS)  min= -8.72285211353909E-06
DEBUG_STATS_RL:               GuNm1 (DYNAMICS)  max=  8.37617935323867E-06
DEBUG_STATS_RL:               GuNm1 (DYNAMICS) mean= -1.76251277196728E-08
DEBUG_STATS_RL:               GuNm1 (DYNAMICS) S.D.=  1.16933155820256E-06
DEBUG_STATS_RL:               GvNm1 (DYNAMICS)  min= -1.01451511077686E-05
DEBUG_STATS_RL:               GvNm1 (DYNAMICS)  max=  1.63446194747334E-05
DEBUG_STATS_RL:               GvNm1 (DYNAMICS) mean=  7.47973141747865E-07
DEBUG_STATS_RL:               GvNm1 (DYNAMICS) S.D.=  2.59969462925887E-06
DEBUG_STATS_RL:               GtNm1 (DYNAMICS)  min= -3.71781589942504E-06
DEBUG_STATS_RL:               GtNm1 (DYNAMICS)  max=  2.73602134594641E-06
DEBUG_STATS_RL:               GtNm1 (DYNAMICS) mean=  1.29276457924756E-08
DEBUG_STATS_RL:               GtNm1 (DYNAMICS) S.D.=  2.02106718882303E-07
DEBUG_STATS_RL:               GsNm1 (DYNAMICS)  min= -4.09171626207131E-07
DEBUG_STATS_RL:               GsNm1 (DYNAMICS)  max=  3.24965065059004E-07
DEBUG_STATS_RL:               GsNm1 (DYNAMICS) mean=  1.00507236719114E-10
DEBUG_STATS_RL:               GsNm1 (DYNAMICS) S.D.=  1.79723823285242E-08
DEBUG_STATS_RL:    cg2d_b (SOLVE_FOR_PRESSURE)  min= -2.08233837529289E+04
DEBUG_STATS_RL:    cg2d_b (SOLVE_FOR_PRESSURE)  max=  1.78779138694485E+04
DEBUG_STATS_RL:    cg2d_b (SOLVE_FOR_PRESSURE) mean=  2.95147545114103E+00
DEBUG_STATS_RL:    cg2d_b (SOLVE_FOR_PRESSURE) S.D.=  3.65313846938038E+03
 cg2d: Sum(rhs),rhsMax =   3.28124657858738E-01  1.36773559795543E+00
(PID.TID 0000.0001)  cg2d: iter=     1 ; resid.=  1.43623637136340E-01
(PID.TID 0000.0001)  cg2d: iter=     2 ; resid.=  1.07629247298005E-01
(PID.TID 0000.0001)  cg2d: iter=     3 ; resid.=  1.06634102723762E-01
(PID.TID 0000.0001)  cg2d: iter=     4 ; resid.=  9.31374959221565E-02
(PID.TID 0000.0001)  cg2d: iter=     5 ; resid.=  7.81007404424953E-02
(PID.TID 0000.0001)  cg2d: iter=     6 ; resid.=  6.23011940319648E-02
(PID.TID 0000.0001)  cg2d: iter=     7 ; resid.=  5.01740440560043E-02
(PID.TID 0000.0001)  cg2d: iter=     8 ; resid.=  4.14830101265990E-02
(PID.TID 0000.0001)  cg2d: iter=     9 ; resid.=  3.58607620941983E-02
(PID.TID 0000.0001)  cg2d: iter=    10 ; resid.=  2.92767084827177E-02
(PID.TID 0000.0001)  cg2d: iter=    11 ; resid.=  2.57814087270948E-02
(PID.TID 0000.0001)  cg2d: iter=    12 ; resid.=  2.27513614188303E-02
(PID.TID 0000.0001)  cg2d: iter=    13 ; resid.=  1.85564287436409E-02
(PID.TID 0000.0001)  cg2d: iter=    14 ; resid.=  1.54666763196873E-02
(PID.TID 0000.0001)  cg2d: iter=    15 ; resid.=  1.27355265556180E-02
(PID.TID 0000.0001)  cg2d: iter=    16 ; resid.=  1.07275765111315E-02
(PID.TID 0000.0001)  cg2d: iter=    17 ; resid.=  9.11112839903312E-03
(PID.TID 0000.0001)  cg2d: iter=    18 ; resid.=  7.42433959014278E-03
(PID.TID 0000.0001)  cg2d: iter=    19 ; resid.=  6.14869560066284E-03
(PID.TID 0000.0001)  cg2d: iter=    20 ; resid.=  4.85155304853099E-03
(PID.TID 0000.0001)  cg2d: iter=    21 ; resid.=  3.83806174966706E-03
(PID.TID 0000.0001)  cg2d: iter=    22 ; resid.=  3.18017881021961E-03
(PID.TID 0000.0001)  cg2d: iter=    23 ; resid.=  2.61202072100975E-03
(PID.TID 0000.0001)  cg2d: iter=    24 ; resid.=  2.19787457580911E-03
(PID.TID 0000.0001)  cg2d: iter=    25 ; resid.=  1.71676087072522E-03
(PID.TID 0000.0001)  cg2d: iter=    26 ; resid.=  1.39389118593609E-03
(PID.TID 0000.0001)  cg2d: iter=    27 ; resid.=  1.17279599049450E-03
(PID.TID 0000.0001)  cg2d: iter=    28 ; resid.=  1.02474641240746E-03
(PID.TID 0000.0001)  cg2d: iter=    29 ; resid.=  9.31798580589049E-04
(PID.TID 0000.0001)  cg2d: iter=    30 ; resid.=  8.22718083170358E-04
(PID.TID 0000.0001)  cg2d: iter=    31 ; resid.=  6.79387164517845E-04
(PID.TID 0000.0001)  cg2d: iter=    32 ; resid.=  4.91446907667173E-04
(PID.TID 0000.0001)  cg2d: iter=    33 ; resid.=  3.89309226278201E-04
(PID.TID 0000.0001)  cg2d: iter=    34 ; resid.=  3.43849612193510E-04
(PID.TID 0000.0001)  cg2d: iter=    35 ; resid.=  2.79495170539585E-04
(PID.TID 0000.0001)  cg2d: iter=    36 ; resid.=  2.15434535584530E-04
(PID.TID 0000.0001)  cg2d: iter=    37 ; resid.=  1.58276016685276E-04
(PID.TID 0000.0001)  cg2d: iter=    38 ; resid.=  1.24538158336214E-04
(PID.TID 0000.0001)  cg2d: iter=    39 ; resid.=  1.01851637213067E-04
(PID.TID 0000.0001)  cg2d: iter=    40 ; resid.=  7.82182113226394E-05
(PID.TID 0000.0001)  cg2d: iter=    41 ; resid.=  6.38077843477927E-05
(PID.TID 0000.0001)  cg2d: iter=    42 ; resid.=  5.40720412542871E-05
(PID.TID 0000.0001)  cg2d: iter=    43 ; resid.=  4.71485869331457E-05
(PID.TID 0000.0001)  cg2d: iter=    44 ; resid.=  4.01724344226160E-05
(PID.TID 0000.0001)  cg2d: iter=    45 ; resid.=  3.21262852969690E-05
(PID.TID 0000.0001)  cg2d: iter=    46 ; resid.=  2.44640202883585E-05
(PID.TID 0000.0001)  cg2d: iter=    47 ; resid.=  2.03948058375944E-05
(PID.TID 0000.0001)  cg2d: iter=    48 ; resid.=  1.76007587383694E-05
(PID.TID 0000.0001)  cg2d: iter=    49 ; resid.=  1.42563398504773E-05
(PID.TID 0000.0001)  cg2d: iter=    50 ; resid.=  1.21297727252838E-05
(PID.TID 0000.0001)  cg2d: iter=    51 ; resid.=  1.03226971976479E-05
(PID.TID 0000.0001)  cg2d: iter=    52 ; resid.=  8.66485161465890E-06
(PID.TID 0000.0001)  cg2d: iter=    53 ; resid.=  7.09854765480597E-06
(PID.TID 0000.0001)  cg2d: iter=    54 ; resid.=  6.27243375660321E-06
(PID.TID 0000.0001)  cg2d: iter=    55 ; resid.=  5.71710890633265E-06
(PID.TID 0000.0001)  cg2d: iter=    56 ; resid.=  4.65566551593206E-06
(PID.TID 0000.0001)  cg2d: iter=    57 ; resid.=  3.55414646427947E-06
(PID.TID 0000.0001)  cg2d: iter=    58 ; resid.=  2.69987354585868E-06
(PID.TID 0000.0001)  cg2d: iter=    59 ; resid.=  2.23420833644617E-06
(PID.TID 0000.0001)  cg2d: iter=    60 ; resid.=  1.72428036247961E-06
(PID.TID 0000.0001)  cg2d: iter=    61 ; resid.=  1.28943337644236E-06
(PID.TID 0000.0001)  cg2d: iter=    62 ; resid.=  9.94984839723835E-07
(PID.TID 0000.0001)  cg2d: iter=    63 ; resid.=  7.85054405819214E-07
(PID.TID 0000.0001)  cg2d: iter=    64 ; resid.=  6.42386792906071E-07
(PID.TID 0000.0001)  cg2d: iter=    65 ; resid.=  5.28536457807429E-07
(PID.TID 0000.0001)  cg2d: iter=    66 ; resid.=  4.57111908691584E-07
(PID.TID 0000.0001)  cg2d: iter=    67 ; resid.=  3.89070159275598E-07
(PID.TID 0000.0001)  cg2d: iter=    68 ; resid.=  3.48251926485901E-07
(PID.TID 0000.0001)  cg2d: iter=    69 ; resid.=  2.72395044432556E-07
(PID.TID 0000.0001)  cg2d: iter=    70 ; resid.=  1.96311661947531E-07
(PID.TID 0000.0001)  cg2d: iter=    71 ; resid.=  1.57533493116940E-07
(PID.TID 0000.0001)  cg2d: iter=    72 ; resid.=  1.29072108923750E-07
(PID.TID 0000.0001)  cg2d: iter=    73 ; resid.=  1.12079295444803E-07
(PID.TID 0000.0001)  cg2d: iter=    74 ; resid.=  9.23468953292813E-08
(PID.TID 0000.0001)  cg2d: iter=    75 ; resid.=  7.55320173846439E-08
(PID.TID 0000.0001)  cg2d: iter=    76 ; resid.=  6.04613606403383E-08
(PID.TID 0000.0001)  cg2d: iter=    77 ; resid.=  5.27831211852276E-08
(PID.TID 0000.0001)  cg2d: iter=    78 ; resid.=  4.59034008054113E-08
(PID.TID 0000.0001)  cg2d: iter=    79 ; resid.=  4.21691266083274E-08
(PID.TID 0000.0001)  cg2d: iter=    80 ; resid.=  3.79317936674468E-08
(PID.TID 0000.0001)  cg2d: iter=    81 ; resid.=  3.37263245660794E-08
(PID.TID 0000.0001)  cg2d: iter=    82 ; resid.=  2.96377307283477E-08
(PID.TID 0000.0001)  cg2d: iter=    83 ; resid.=  2.33627613975318E-08
(PID.TID 0000.0001)  cg2d: iter=    84 ; resid.=  1.91819698775902E-08
(PID.TID 0000.0001)  cg2d: iter=    85 ; resid.=  1.56670106565509E-08
(PID.TID 0000.0001)  cg2d: iter=    86 ; resid.=  1.29464218557780E-08
(PID.TID 0000.0001)  cg2d: iter=    87 ; resid.=  1.08352458677396E-08
(PID.TID 0000.0001)  cg2d: iter=    88 ; resid.=  9.43874541191566E-09
(PID.TID 0000.0001)  cg2d: iter=    89 ; resid.=  9.04865742687063E-09
(PID.TID 0000.0001)  cg2d: iter=    90 ; resid.=  7.69671131813727E-09
(PID.TID 0000.0001)  cg2d: iter=    91 ; resid.=  5.81444238133617E-09
(PID.TID 0000.0001)  cg2d: iter=    92 ; resid.=  4.21034777752356E-09
(PID.TID 0000.0001)  cg2d: iter=    93 ; resid.=  3.05789011700204E-09
(PID.TID 0000.0001)  cg2d: iter=    94 ; resid.=  2.22942349664612E-09
(PID.TID 0000.0001)  cg2d: iter=    95 ; resid.=  1.82800498912875E-09
(PID.TID 0000.0001)  cg2d: iter=    96 ; resid.=  1.50173250992933E-09
(PID.TID 0000.0001)  cg2d: iter=    97 ; resid.=  1.23832215467040E-09
(PID.TID 0000.0001)  cg2d: iter=    98 ; resid.=  9.63509107025439E-10
(PID.TID 0000.0001)  cg2d: iter=    99 ; resid.=  8.22937417259763E-10
(PID.TID 0000.0001)  cg2d: iter=   100 ; resid.=  7.78584696630569E-10
(PID.TID 0000.0001)  cg2d: iter=   101 ; resid.=  6.73253377258267E-10
(PID.TID 0000.0001)  cg2d: iter=   102 ; resid.=  5.06447589545902E-10
(PID.TID 0000.0001)  cg2d: iter=   103 ; resid.=  3.79652486301146E-10
(PID.TID 0000.0001)  cg2d: iter=   104 ; resid.=  3.16718853712032E-10
(PID.TID 0000.0001)  cg2d: iter=   105 ; resid.=  2.47919653823223E-10
(PID.TID 0000.0001)  cg2d: iter=   106 ; resid.=  1.95034848328749E-10
(PID.TID 0000.0001)  cg2d: iter=   107 ; resid.=  1.54646631705738E-10
(PID.TID 0000.0001)  cg2d: iter=   108 ; resid.=  1.24933654557885E-10
(PID.TID 0000.0001)  cg2d: iter=   109 ; resid.=  1.02133006478953E-10
(PID.TID 0000.0001)  cg2d: iter=   110 ; resid.=  8.29967925073304E-11
(PID.TID 0000.0001)  cg2d: iter=   111 ; resid.=  7.15259347888848E-11
(PID.TID 0000.0001)  cg2d: iter=   112 ; resid.=  5.47125833811912E-11
(PID.TID 0000.0001)  cg2d: iter=   113 ; resid.=  3.97729633812560E-11
(PID.TID 0000.0001)  cg2d: iter=   114 ; resid.=  2.98843811062016E-11
(PID.TID 0000.0001)  cg2d: iter=   115 ; resid.=  2.33930894926130E-11
(PID.TID 0000.0001)  cg2d: iter=   116 ; resid.=  1.68592779074301E-11
(PID.TID 0000.0001)  cg2d: iter=   117 ; resid.=  1.23855961447871E-11
(PID.TID 0000.0001)  cg2d: iter=   118 ; resid.=  8.86094994143228E-12
(PID.TID 0000.0001)  cg2d: iter=   119 ; resid.=  6.80696544635664E-12
(PID.TID 0000.0001)  cg2d: iter=   120 ; resid.=  4.99134121473561E-12
(PID.TID 0000.0001)  cg2d: iter=   121 ; resid.=  3.94528121499536E-12
(PID.TID 0000.0001)  cg2d: iter=   122 ; resid.=  3.24754811950424E-12
(PID.TID 0000.0001)  cg2d: iter=   123 ; resid.=  2.39132422287864E-12
(PID.TID 0000.0001)  cg2d: iter=   124 ; resid.=  1.57085738080944E-12
(PID.TID 0000.0001)  cg2d: iter=   125 ; resid.=  1.04749893532659E-12
(PID.TID 0000.0001)  cg2d: iter=   126 ; resid.=  7.96975888480555E-13
(PID.TID 0000.0001)  cg2d: iter=   127 ; resid.=  6.14247901347685E-13
(PID.TID 0000.0001)  cg2d: iter=   128 ; resid.=  4.73723430975612E-13
(PID.TID 0000.0001)  cg2d: iter=   129 ; resid.=  3.58745211266252E-13
(PID.TID 0000.0001)  cg2d: iter=   130 ; resid.=  2.87348623877767E-13
(PID.TID 0000.0001)  cg2d: iter=   131 ; resid.=  2.29531400636441E-13
(PID.TID 0000.0001)  cg2d: iter=   132 ; resid.=  1.83919165321641E-13
(PID.TID 0000.0001)  cg2d: iter=   133 ; resid.=  1.33524249104690E-13
(PID.TID 0000.0001)  cg2d: iter=   134 ; resid.=  9.81203428147431E-14
DEBUG_STATS_RL:    cg2d_x (SOLVE_FOR_PRESSURE)  min= -1.67824238778455E+01
DEBUG_STATS_RL:    cg2d_x (SOLVE_FOR_PRESSURE)  max=  9.30638690676063E+00
DEBUG_STATS_RL:    cg2d_x (SOLVE_FOR_PRESSURE) mean= -1.74104142324551E+00
DEBUG_STATS_RL:    cg2d_x (SOLVE_FOR_PRESSURE) S.D.=  6.90226075207062E+00
(PID.TID 0000.0001)      cg2d_init_res =   4.07491909105076E-01
(PID.TID 0000.0001)      cg2d_iters(min,last) =      -1     134
(PID.TID 0000.0001)      cg2d_last_res =   9.81203428147431E-14
(PID.TID 0000.0001) // =======================================================
(PID.TID 0000.0001) // Begin MONITOR dynamic field statistics
(PID.TID 0000.0001) // =======================================================
(PID.TID 0000.0001) %MON time_tsnumber                =                    41
(PID.TID 0000.0001) %MON time_secondsf                =   3.5424000000000E+06
(PID.TID 0000.0001) %MON dynstat_eta_max              =   9.4866329324772E-01
(PID.TID 0000.0001) %MON dynstat_eta_min              =  -1.7107465726651E+00
(PID.TID 0000.0001) %MON dynstat_eta_mean             =  -3.0794986623914E-03
(PID.TID 0000.0001) %MON dynstat_eta_sd               =   6.2349187613291E-01
(PID.TID 0000.0001) %MON dynstat_eta_del2             =   2.1808904494611E-03
(PID.TID 0000.0001) %MON dynstat_uvel_max             =   1.5053457772046E-01
(PID.TID 0000.0001) %MON dynstat_uvel_min             =  -1.5226451123015E-01
(PID.TID 0000.0001) %MON dynstat_uvel_mean            =   1.2979926466298E-03
(PID.TID 0000.0001) %MON dynstat_uvel_sd              =   1.5103877800857E-02
(PID.TID 0000.0001) %MON dynstat_uvel_del2            =   8.8851197109109E-05
(PID.TID 0000.0001) %MON dynstat_vvel_max             =   1.1947677694270E-01
(PID.TID 0000.0001) %MON dynstat_vvel_min             =  -1.1380149164370E-01
(PID.TID 0000.0001) %MON dynstat_vvel_mean            =  -2.6261746006406E-06
(PID.TID 0000.0001) %MON dynstat_vvel_sd              =   9.3683679385148E-03
(PID.TID 0000.0001) %MON dynstat_vvel_del2            =   8.0074305546519E-05
(PID.TID 0000.0001) %MON dynstat_wvel_max             =   9.8235211472399E-05
(PID.TID 0000.0001) %MON dynstat_wvel_min             =  -1.3344634827704E-04
(PID.TID 0000.0001) %MON dynstat_wvel_mean            =   7.3845423222701E-23
(PID.TID 0000.0001) %MON dynstat_wvel_sd              =   1.4586622203634E-05
(PID.TID 0000.0001) %MON dynstat_wvel_del2            =   1.4905858225848E-07
(PID.TID 0000.0001) %MON dynstat_theta_max            =   3.0219466435735E+01
(PID.TID 0000.0001) %MON dynstat_theta_min            =  -1.9981975780418E+00
(PID.TID 0000.0001) %MON dynstat_theta_mean           =   3.6319362575828E+00
(PID.TID 0000.0001) %MON dynstat_theta_sd             =   4.4193560609864E+00
(PID.TID 0000.0001) %MON dynstat_theta_del2           =   4.7363723337754E-03
(PID.TID 0000.0001) %MON dynstat_salt_max             =   3.7466233541459E+01
(PID.TID 0000.0001) %MON dynstat_salt_min             =   2.9833900902963E+01
(PID.TID 0000.0001) %MON dynstat_salt_mean            =   3.4727997890886E+01
(PID.TID 0000.0001) %MON dynstat_salt_sd              =   2.9634949753023E-01
(PID.TID 0000.0001) %MON dynstat_salt_del2            =   9.8559681662929E-04
(PID.TID 0000.0001) %MON dynstat_sst_max              =   3.0219466435735E+01
(PID.TID 0000.0001) %MON dynstat_sst_min              =  -1.9981975780418E+00
(PID.TID 0000.0001) %MON dynstat_sst_mean             =   1.8855857398961E+01
(PID.TID 0000.0001) %MON dynstat_sst_sd               =   9.0128545188647E+00
(PID.TID 0000.0001) %MON dynstat_sst_del2             =   2.6978788115419E-02
(PID.TID 0000.0001) %MON dynstat_sss_max              =   3.7439281256300E+01
(PID.TID 0000.0001) %MON dynstat_sss_min              =   2.9833900902963E+01
(PID.TID 0000.0001) %MON dynstat_sss_mean             =   3.4854249274664E+01
(PID.TID 0000.0001) %MON dynstat_sss_sd               =   9.7682886040017E-01
(PID.TID 0000.0001) %MON dynstat_sss_del2             =   7.8606792480708E-03
(PID.TID 0000.0001) %MON forcing_qnet_max             =   3.6522328694661E+02
(PID.TID 0000.0001) %MON forcing_qnet_min             =  -1.7403156534831E+02
(PID.TID 0000.0001) %MON forcing_qnet_mean            =  -1.4389796815960E+01
(PID.TID 0000.0001) %MON forcing_qnet_sd              =   8.4259729047287E+01
(PID.TID 0000.0001) %MON forcing_qnet_del2            =   9.5401834956669E-01
(PID.TID 0000.0001) %MON forcing_qsw_max              =   0.0000000000000E+00
(PID.TID 0000.0001) %MON forcing_qsw_min              =   0.0000000000000E+00
(PID.TID 0000.0001) %MON forcing_qsw_mean             =   0.0000000000000E+00
(PID.TID 0000.0001) %MON forcing_qsw_sd               =   0.0000000000000E+00
(PID.TID 0000.0001) %MON forcing_qsw_del2             =   0.0000000000000E+00
(PID.TID 0000.0001) %MON forcing_empmr_max            =   7.4321995668925E-05
(PID.TID 0000.0001) %MON forcing_empmr_min            =  -7.8147062746818E-05
(PID.TID 0000.0001) %MON forcing_empmr_mean           =   9.3999699360960E-07
(PID.TID 0000.0001) %MON forcing_empmr_sd             =   2.8003424718777E-05
(PID.TID 0000.0001) %MON forcing_empmr_del2           =   3.5419346009159E-07
(PID.TID 0000.0001) %MON forcing_fu_max               =   2.9769973456860E-01
(PID.TID 0000.0001) %MON forcing_fu_min               =  -2.0743273198605E-01
(PID.TID 0000.0001) %MON forcing_fu_mean              =   1.7359240539291E-02
(PID.TID 0000.0001) %MON forcing_fu_sd                =   9.1619137544782E-02
(PID.TID 0000.0001) %MON forcing_fu_del2              =   7.0729330182073E-04
(PID.TID 0000.0001) %MON forcing_fv_max               =   1.9102514038483E-01
(PID.TID 0000.0001) %MON forcing_fv_min               =  -1.8381976087888E-01
(PID.TID 0000.0001) %MON forcing_fv_mean              =  -6.8904204073845E-03
(PID.TID 0000.0001) %MON forcing_fv_sd                =   4.4605886402216E-02
(PID.TID 0000.0001) %MON forcing_fv_del2              =   5.0576945240665E-04
(PID.TID 0000.0001) %MON trAdv_CFL_u_max              =   4.8588784806246E-02
(PID.TID 0000.0001) %MON trAdv_CFL_v_max              =   2.4405620256203E-02
(PID.TID 0000.0001) %MON trAdv_CFL_w_max              =   3.4898843070580E-02
(PID.TID 0000.0001) %MON advcfl_uvel_max              =   4.9757039756701E-02
(PID.TID 0000.0001) %MON advcfl_vvel_max              =   2.3212421582839E-02
(PID.TID 0000.0001) %MON advcfl_wvel_max              =   3.0942194800595E-02
(PID.TID 0000.0001) %MON advcfl_W_hf_max              =   3.5152762570705E-02
(PID.TID 0000.0001) %MON pe_b_mean                    =   4.9745453326188E-04
(PID.TID 0000.0001) %MON ke_max                       =   1.4753613445554E-02
(PID.TID 0000.0001) %MON ke_mean                      =   1.4380917886345E-04
(PID.TID 0000.0001) %MON ke_vol                       =   1.3226782436723E+18
(PID.TID 0000.0001) %MON vort_r_min                   =  -4.6034582797760E-07
(PID.TID 0000.0001) %MON vort_r_max                   =   4.4090507277700E-07
(PID.TID 0000.0001) %MON vort_a_mean                  =  -2.5274806807184E-05
(PID.TID 0000.0001) %MON vort_a_sd                    =   7.3604516158695E-05
(PID.TID 0000.0001) %MON vort_p_mean                  =  -3.1845655055750E-05
(PID.TID 0000.0001) %MON vort_p_sd                    =   1.3162438599810E-04
(PID.TID 0000.0001) %MON surfExpan_theta_mean         =   3.3757507715431E-07
(PID.TID 0000.0001) %MON surfExpan_salt_mean          =  -6.2825148017201E-09
(PID.TID 0000.0001) // =======================================================
(PID.TID 0000.0001) // End MONITOR dynamic field statistics
(PID.TID 0000.0001) // =======================================================
 EXTERNAL_FIELDS_LOAD,        41 : iP,iLd,i0,i1=    1    2    1    2 ; Wght=  0.1333333333  0.8666666667
 EXTERNAL_FIELDS_LOAD: (fu0,1),fu,fv= -3.5633E-02 -1.4435E-02 -1.7261E-02 -2.2918E-02
 EXTERNAL_FIELDS_LOAD: SST,SSS,Q,E-P= -3.3315E-01  3.4460E+01  2.4385E+02  8.8118E-06
DEBUG_STATS_RL:          Uvel (THERMODYNAMICS)  min= -1.52264511230153E-01
DEBUG_STATS_RL:          Uvel (THERMODYNAMICS)  max=  1.50534577720464E-01
DEBUG_STATS_RL:          Uvel (THERMODYNAMICS) mean=  3.45345555314755E-03
DEBUG_STATS_RL:          Uvel (THERMODYNAMICS) S.D.=  2.41523150098296E-02
DEBUG_STATS_RL:          Vvel (THERMODYNAMICS)  min= -1.13801491643698E-01
DEBUG_STATS_RL:          Vvel (THERMODYNAMICS)  max=  1.19476776942702E-01
DEBUG_STATS_RL:          Vvel (THERMODYNAMICS) mean=  2.21658350097977E-04
DEBUG_STATS_RL:          Vvel (THERMODYNAMICS) S.D.=  1.42847619420443E-02
DEBUG_STATS_RL:          Wvel (THERMODYNAMICS)  min= -1.33446348277044E-04
DEBUG_STATS_RL:          Wvel (THERMODYNAMICS)  max=  9.82352114723986E-05
DEBUG_STATS_RL:          Wvel (THERMODYNAMICS) mean= -3.11163083856351E-07
DEBUG_STATS_RL:          Wvel (THERMODYNAMICS) S.D.=  1.26887704063762E-05
DEBUG_STATS_RL:         Theta (THERMODYNAMICS)  min= -1.99685047859595E+00
DEBUG_STATS_RL:         Theta (THERMODYNAMICS)  max=  3.02423347674665E+01
DEBUG_STATS_RL:         Theta (THERMODYNAMICS) mean=  3.22497031457932E+00
DEBUG_STATS_RL:         Theta (THERMODYNAMICS) S.D.=  5.86521199347167E+00
DEBUG_STATS_RL:          Salt (THERMODYNAMICS)  min=  9.99999999999998E-03
DEBUG_STATS_RL:          Salt (THERMODYNAMICS)  max=  3.74664667582059E+01
DEBUG_STATS_RL:          Salt (THERMODYNAMICS) mean=  1.88548548753338E+01
DEBUG_STATS_RL:          Salt (THERMODYNAMICS) S.D.=  1.73003759113237E+01
DEBUG_STATS_RL:         GtNm1 (THERMODYNAMICS)  min= -3.87262940977587E-06
DEBUG_STATS_RL:         GtNm1 (THERMODYNAMICS)  max=  2.85583477642414E-06
DEBUG_STATS_RL:         GtNm1 (THERMODYNAMICS) mean=  1.25807912253039E-08
DEBUG_STATS_RL:         GtNm1 (THERMODYNAMICS) S.D.=  2.02286265439090E-07
DEBUG_STATS_RL:         GsNm1 (THERMODYNAMICS)  min= -4.31954009611069E-07
DEBUG_STATS_RL:         GsNm1 (THERMODYNAMICS)  max=  3.15364864634036E-07
DEBUG_STATS_RL:         GsNm1 (THERMODYNAMICS) mean=  1.52570336996034E-10
DEBUG_STATS_RL:         GsNm1 (THERMODYNAMICS) S.D.=  1.81081216858921E-08
DEBUG_STATS_RL:                EtaN (DYNAMICS)  min= -1.71074657266514E+00
DEBUG_STATS_RL:                EtaN (DYNAMICS)  max=  9.48663293247719E-01
DEBUG_STATS_RL:                EtaN (DYNAMICS) mean= -1.77476189933284E-01
DEBUG_STATS_RL:                EtaN (DYNAMICS) S.D.=  7.03594368202921E-01
DEBUG_STATS_RL:                Uvel (DYNAMICS)  min= -1.52264511230153E-01
DEBUG_STATS_RL:                Uvel (DYNAMICS)  max=  1.50534577720464E-01
DEBUG_STATS_RL:                Uvel (DYNAMICS) mean=  3.45345555314755E-03
DEBUG_STATS_RL:                Uvel (DYNAMICS) S.D.=  2.41523150098296E-02
DEBUG_STATS_RL:                Vvel (DYNAMICS)  min= -1.13801491643698E-01
DEBUG_STATS_RL:                Vvel (DYNAMICS)  max=  1.19476776942702E-01
DEBUG_STATS_RL:                Vvel (DYNAMICS) mean=  2.21658350097977E-04
DEBUG_STATS_RL:                Vvel (DYNAMICS) S.D.=  1.42847619420443E-02
DEBUG_STATS_RL:                Wvel (DYNAMICS)  min= -1.33446348277044E-04
DEBUG_STATS_RL:                Wvel (DYNAMICS)  max=  9.82352114723986E-05
DEBUG_STATS_RL:                Wvel (DYNAMICS) mean= -3.11163083856351E-07
DEBUG_STATS_RL:                Wvel (DYNAMICS) S.D.=  1.26887704063762E-05
DEBUG_STATS_RL:               Theta (DYNAMICS)  min= -1.99685047859595E+00
DEBUG_STATS_RL:               Theta (DYNAMICS)  max=  3.02423347674665E+01
DEBUG_STATS_RL:               Theta (DYNAMICS) mean=  3.22497031457932E+00
DEBUG_STATS_RL:               Theta (DYNAMICS) S.D.=  5.86521199347167E+00
DEBUG_STATS_RL:                Salt (DYNAMICS)  min=  9.99999999999998E-03
DEBUG_STATS_RL:                Salt (DYNAMICS)  max=  3.74664667582059E+01
DEBUG_STATS_RL:                Salt (DYNAMICS) mean=  1.88548548753338E+01
DEBUG_STATS_RL:                Salt (DYNAMICS) S.D.=  1.73003759113237E+01
DEBUG_STATS_RL:                  Gu (DYNAMICS)  min= -1.52074276690215E-01
DEBUG_STATS_RL:                  Gu (DYNAMICS)  max=  1.53515888651869E-01
DEBUG_STATS_RL:                  Gu (DYNAMICS) mean=  3.37102624667974E-03
DEBUG_STATS_RL:                  Gu (DYNAMICS) S.D.=  2.48010401805968E-02
DEBUG_STATS_RL:                  Gv (DYNAMICS)  min= -1.09578221603464E-01
DEBUG_STATS_RL:                  Gv (DYNAMICS)  max=  1.22410630604093E-01
DEBUG_STATS_RL:                  Gv (DYNAMICS) mean=  2.66601496735793E-03
DEBUG_STATS_RL:                  Gv (DYNAMICS) S.D.=  1.45919325499440E-02
DEBUG_STATS_RL:               GuNm1 (DYNAMICS)  min= -8.81268316865967E-06
DEBUG_STATS_RL:               GuNm1 (DYNAMICS)  max=  8.43533591122518E-06
DEBUG_STATS_RL:               GuNm1 (DYNAMICS) mean= -1.64681099576369E-08
DEBUG_STATS_RL:               GuNm1 (DYNAMICS) S.D.=  1.16844081586990E-06
DEBUG_STATS_RL:               GvNm1 (DYNAMICS)  min= -1.00359764008511E-05
DEBUG_STATS_RL:               GvNm1 (DYNAMICS)  max=  1.63433839680869E-05
DEBUG_STATS_RL:               GvNm1 (DYNAMICS) mean=  7.47244988596303E-07
DEBUG_STATS_RL:               GvNm1 (DYNAMICS) S.D.=  2.59548289920271E-06
DEBUG_STATS_RL:               GtNm1 (DYNAMICS)  min= -3.87262940977587E-06
DEBUG_STATS_RL:               GtNm1 (DYNAMICS)  max=  2.85583477642414E-06
DEBUG_STATS_RL:               GtNm1 (DYNAMICS) mean=  1.25807912253039E-08
DEBUG_STATS_RL:               GtNm1 (DYNAMICS) S.D.=  2.02286265439090E-07
DEBUG_STATS_RL:               GsNm1 (DYNAMICS)  min= -4.31954009611069E-07
DEBUG_STATS_RL:               GsNm1 (DYNAMICS)  max=  3.15364864634036E-07
DEBUG_STATS_RL:               GsNm1 (DYNAMICS) mean=  1.52570336996034E-10
DEBUG_STATS_RL:               GsNm1 (DYNAMICS) S.D.=  1.81081216858921E-08
DEBUG_STATS_RL:    cg2d_b (SOLVE_FOR_PRESSURE)  min= -2.09948571357438E+04
DEBUG_STATS_RL:    cg2d_b (SOLVE_FOR_PRESSURE)  max=  1.83798545120003E+04
DEBUG_STATS_RL:    cg2d_b (SOLVE_FOR_PRESSURE) mean=  3.02673717776409E+00
DEBUG_STATS_RL:    cg2d_b (SOLVE_FOR_PRESSURE) S.D.=  3.64474448481824E+03
 cg2d: Sum(rhs),rhsMax =   3.33743474471950E-01  1.37899842884596E+00
(PID.TID 0000.0001)  cg2d: iter=     1 ; resid.=  1.39278877812909E-01
(PID.TID 0000.0001)  cg2d: iter=     2 ; resid.=  1.01655830238079E-01
(PID.TID 0000.0001)  cg2d: iter=     3 ; resid.=  9.97755934330378E-02
(PID.TID 0000.0001)  cg2d: iter=     4 ; resid.=  8.56749645282377E-02
(PID.TID 0000.0001)  cg2d: iter=     5 ; resid.=  6.95869926079516E-02
(PID.TID 0000.0001)  cg2d: iter=     6 ; resid.=  5.44453576544808E-02
(PID.TID 0000.0001)  cg2d: iter=     7 ; resid.=  4.29669066141280E-02
(PID.TID 0000.0001)  cg2d: iter=     8 ; resid.=  3.54544313869326E-02
(PID.TID 0000.0001)  cg2d: iter=     9 ; resid.=  3.04791607581355E-02
(PID.TID 0000.0001)  cg2d: iter=    10 ; resid.=  2.45524974977908E-02
(PID.TID 0000.0001)  cg2d: iter=    11 ; resid.=  2.12263710577421E-02
(PID.TID 0000.0001)  cg2d: iter=    12 ; resid.=  1.88778799087208E-02
(PID.TID 0000.0001)  cg2d: iter=    13 ; resid.=  1.55481879627265E-02
(PID.TID 0000.0001)  cg2d: iter=    14 ; resid.=  1.28544498160452E-02
(PID.TID 0000.0001)  cg2d: iter=    15 ; resid.=  1.05934219791426E-02
(PID.TID 0000.0001)  cg2d: iter=    16 ; resid.=  8.99805089435654E-03
(PID.TID 0000.0001)  cg2d: iter=    17 ; resid.=  7.76395150985029E-03
(PID.TID 0000.0001)  cg2d: iter=    18 ; resid.=  6.29565101305718E-03
(PID.TID 0000.0001)  cg2d: iter=    19 ; resid.=  5.26160904512459E-03
(PID.TID 0000.0001)  cg2d: iter=    20 ; resid.=  4.21872679821043E-03
(PID.TID 0000.0001)  cg2d: iter=    21 ; resid.=  3.39247835017282E-03
(PID.TID 0000.0001)  cg2d: iter=    22 ; resid.=  2.81090873681561E-03
(PID.TID 0000.0001)  cg2d: iter=    23 ; resid.=  2.27483051609728E-03
(PID.TID 0000.0001)  cg2d: iter=    24 ; resid.=  1.87480032514054E-03
(PID.TID 0000.0001)  cg2d: iter=    25 ; resid.=  1.45629484945438E-03
(PID.TID 0000.0001)  cg2d: iter=    26 ; resid.=  1.17416355396459E-03
(PID.TID 0000.0001)  cg2d: iter=    27 ; resid.=  9.98724457254859E-04
(PID.TID 0000.0001)  cg2d: iter=    28 ; resid.=  8.79325407407560E-04
(PID.TID 0000.0001)  cg2d: iter=    29 ; resid.=  8.13078380750126E-04
(PID.TID 0000.0001)  cg2d: iter=    30 ; resid.=  7.32351410897426E-04
(PID.TID 0000.0001)  cg2d: iter=    31 ; resid.=  6.27031120239680E-04
(PID.TID 0000.0001)  cg2d: iter=    32 ; resid.=  4.65085574539568E-04
(PID.TID 0000.0001)  cg2d: iter=    33 ; resid.=  3.73776519770601E-04
(PID.TID 0000.0001)  cg2d: iter=    34 ; resid.=  3.33633626013946E-04
(PID.TID 0000.0001)  cg2d: iter=    35 ; resid.=  2.75183182274999E-04
(PID.TID 0000.0001)  cg2d: iter=    36 ; resid.=  2.13732721495395E-04
(PID.TID 0000.0001)  cg2d: iter=    37 ; resid.=  1.58678713976455E-04
(PID.TID 0000.0001)  cg2d: iter=    38 ; resid.=  1.23109497380059E-04
(PID.TID 0000.0001)  cg2d: iter=    39 ; resid.=  9.87440496216569E-05
(PID.TID 0000.0001)  cg2d: iter=    40 ; resid.=  7.54683987893053E-05
(PID.TID 0000.0001)  cg2d: iter=    41 ; resid.=  6.11859109572804E-05
(PID.TID 0000.0001)  cg2d: iter=    42 ; resid.=  5.20533912858761E-05
(PID.TID 0000.0001)  cg2d: iter=    43 ; resid.=  4.69648602781237E-05
(PID.TID 0000.0001)  cg2d: iter=    44 ; resid.=  4.16052049631973E-05
(PID.TID 0000.0001)  cg2d: iter=    45 ; resid.=  3.42475275589269E-05
(PID.TID 0000.0001)  cg2d: iter=    46 ; resid.=  2.71939441333666E-05
(PID.TID 0000.0001)  cg2d: iter=    47 ; resid.=  2.39864863628775E-05
(PID.TID 0000.0001)  cg2d: iter=    48 ; resid.=  2.20419993548177E-05
(PID.TID 0000.0001)  cg2d: iter=    49 ; resid.=  1.84114850162388E-05
(PID.TID 0000.0001)  cg2d: iter=    50 ; resid.=  1.58871312179766E-05
(PID.TID 0000.0001)  cg2d: iter=    51 ; resid.=  1.36138981395770E-05
(PID.TID 0000.0001)  cg2d: iter=    52 ; resid.=  1.19410010680968E-05
(PID.TID 0000.0001)  cg2d: iter=    53 ; resid.=  1.00519459099945E-05
(PID.TID 0000.0001)  cg2d: iter=    54 ; resid.=  8.88209841679103E-06
(PID.TID 0000.0001)  cg2d: iter=    55 ; resid.=  7.79892756789016E-06
(PID.TID 0000.0001)  cg2d: iter=    56 ; resid.=  6.23127971327390E-06
(PID.TID 0000.0001)  cg2d: iter=    57 ; resid.=  4.76707893864853E-06
(PID.TID 0000.0001)  cg2d: iter=    58 ; resid.=  3.63751842042563E-06
(PID.TID 0000.0001)  cg2d: iter=    59 ; resid.=  2.99286023932174E-06
(PID.TID 0000.0001)  cg2d: iter=    60 ; resid.=  2.30323980220660E-06
(PID.TID 0000.0001)  cg2d: iter=    61 ; resid.=  1.74386272146943E-06
(PID.TID 0000.0001)  cg2d: iter=    62 ; resid.=  1.37376045502064E-06
(PID.TID 0000.0001)  cg2d: iter=    63 ; resid.=  1.11379683143281E-06
(PID.TID 0000.0001)  cg2d: iter=    64 ; resid.=  9.75852183671292E-07
(PID.TID 0000.0001)  cg2d: iter=    65 ; resid.=  8.56707702225993E-07
(PID.TID 0000.0001)  cg2d: iter=    66 ; resid.=  7.84641762760808E-07
(PID.TID 0000.0001)  cg2d: iter=    67 ; resid.=  6.93937544873406E-07
(PID.TID 0000.0001)  cg2d: iter=    68 ; resid.=  6.45119669463002E-07
(PID.TID 0000.0001)  cg2d: iter=    69 ; resid.=  5.18339857350469E-07
(PID.TID 0000.0001)  cg2d: iter=    70 ; resid.=  3.81508050501408E-07
(PID.TID 0000.0001)  cg2d: iter=    71 ; resid.=  3.20832963899691E-07
(PID.TID 0000.0001)  cg2d: iter=    72 ; resid.=  2.71978422366022E-07
(PID.TID 0000.0001)  cg2d: iter=    73 ; resid.=  2.34207365344117E-07
(PID.TID 0000.0001)  cg2d: iter=    74 ; resid.=  1.87579144536475E-07
(PID.TID 0000.0001)  cg2d: iter=    75 ; resid.=  1.46884756847446E-07
(PID.TID 0000.0001)  cg2d: iter=    76 ; resid.=  1.11411656994036E-07
(PID.TID 0000.0001)  cg2d: iter=    77 ; resid.=  9.32015424974342E-08
(PID.TID 0000.0001)  cg2d: iter=    78 ; resid.=  7.47639859079365E-08
(PID.TID 0000.0001)  cg2d: iter=    79 ; resid.=  6.37773364741950E-08
(PID.TID 0000.0001)  cg2d: iter=    80 ; resid.=  5.28717340083034E-08
(PID.TID 0000.0001)  cg2d: iter=    81 ; resid.=  4.24318164646934E-08
(PID.TID 0000.0001)  cg2d: iter=    82 ; resid.=  3.41477799772440E-08
(PID.TID 0000.0001)  cg2d: iter=    83 ; resid.=  2.48214898835289E-08
(PID.TID 0000.0001)  cg2d: iter=    84 ; resid.=  1.88761102478048E-08
(PID.TID 0000.0001)  cg2d: iter=    85 ; resid.=  1.46425426672713E-08
(PID.TID 0000.0001)  cg2d: iter=    86 ; resid.=  1.14416937161798E-08
(PID.TID 0000.0001)  cg2d: iter=    87 ; resid.=  9.07639820753518E-09
(PID.TID 0000.0001)  cg2d: iter=    88 ; resid.=  7.75487845145957E-09
(PID.TID 0000.0001)  cg2d: iter=    89 ; resid.=  7.90166692022225E-09
(PID.TID 0000.0001)  cg2d: iter=    90 ; resid.=  7.35907950374717E-09
(PID.TID 0000.0001)  cg2d: iter=    91 ; resid.=  5.86160578148538E-09
(PID.TID 0000.0001)  cg2d: iter=    92 ; resid.=  4.33691765527950E-09
(PID.TID 0000.0001)  cg2d: iter=    93 ; resid.=  3.11847254786385E-09
(PID.TID 0000.0001)  cg2d: iter=    94 ; resid.=  2.20344668474204E-09
(PID.TID 0000.0001)  cg2d: iter=    95 ; resid.=  1.73894449325388E-09
(PID.TID 0000.0001)  cg2d: iter=    96 ; resid.=  1.37174170494874E-09
(PID.TID 0000.0001)  cg2d: iter=    97 ; resid.=  1.06815271863259E-09
(PID.TID 0000.0001)  cg2d: iter=    98 ; resid.=  7.72295265351579E-10
(PID.TID 0000.0001)  cg2d: iter=    99 ; resid.=  5.92312864739799E-10
(PID.TID 0000.0001)  cg2d: iter=   100 ; resid.=  5.34288187531059E-10
(PID.TID 0000.0001)  cg2d: iter=   101 ; resid.=  4.66024116240445E-10
(PID.TID 0000.0001)  cg2d: iter=   102 ; resid.=  3.45851913881946E-10
(PID.TID 0000.0001)  cg2d: iter=   103 ; resid.=  2.39746293526389E-10
(PID.TID 0000.0001)  cg2d: iter=   104 ; resid.=  1.83564539846801E-10
(PID.TID 0000.0001)  cg2d: iter=   105 ; resid.=  1.34552324428114E-10
(PID.TID 0000.0001)  cg2d: iter=   106 ; resid.=  9.77128726864851E-11
(PID.TID 0000.0001)  cg2d: iter=   107 ; resid.=  6.92400301078817E-11
(PID.TID 0000.0001)  cg2d: iter=   108 ; resid.=  4.85696049547109E-11
(PID.TID 0000.0001)  cg2d: iter=   109 ; resid.=  3.59444593538014E-11
(PID.TID 0000.0001)  cg2d: iter=   110 ; resid.=  2.49357656611837E-11
(PID.TID 0000.0001)  cg2d: iter=   111 ; resid.=  1.87568837807909E-11
(PID.TID 0000.0001)  cg2d: iter=   112 ; resid.=  1.41146802679953E-11
(PID.TID 0000.0001)  cg2d: iter=   113 ; resid.=  1.06169128681902E-11
(PID.TID 0000.0001)  cg2d: iter=   114 ; resid.=  8.10743513927216E-12
(PID.TID 0000.0001)  cg2d: iter=   115 ; resid.=  6.91217710136616E-12
(PID.TID 0000.0001)  cg2d: iter=   116 ; resid.=  5.46324525389112E-12
(PID.TID 0000.0001)  cg2d: iter=   117 ; resid.=  4.47355706216910E-12
(PID.TID 0000.0001)  cg2d: iter=   118 ; resid.=  3.27317425970450E-12
(PID.TID 0000.0001)  cg2d: iter=   119 ; resid.=  2.51721187246166E-12
(PID.TID 0000.0001)  cg2d: iter=   120 ; resid.=  1.84728579288914E-12
(PID.TID 0000.0001)  cg2d: iter=   121 ; resid.=  1.38144194640887E-12
(PID.TID 0000.0001)  cg2d: iter=   122 ; resid.=  1.17918615319285E-12
(PID.TID 0000.0001)  cg2d: iter=   123 ; resid.=  9.94340987284358E-13
(PID.TID 0000.0001)  cg2d: iter=   124 ; resid.=  7.33238130036266E-13
(PID.TID 0000.0001)  cg2d: iter=   125 ; resid.=  5.10160449347810E-13
(PID.TID 0000.0001)  cg2d: iter=   126 ; resid.=  3.83470860770244E-13
(PID.TID 0000.0001)  cg2d: iter=   127 ; resid.=  3.07157326338825E-13
(PID.TID 0000.0001)  cg2d: iter=   128 ; resid.=  2.47313200035636E-13
(PID.TID 0000.0001)  cg2d: iter=   129 ; resid.=  1.94992467708555E-13
(PID.TID 0000.0001)  cg2d: iter=   130 ; resid.=  1.62576020660552E-13
(PID.TID 0000.0001)  cg2d: iter=   131 ; resid.=  1.44502794461432E-13
(PID.TID 0000.0001)  cg2d: iter=   132 ; resid.=  1.33600856445676E-13
(PID.TID 0000.0001)  cg2d: iter=   133 ; resid.=  1.03496483693540E-13
(PID.TID 0000.0001)  cg2d: iter=   134 ; resid.=  7.60368818255684E-14
DEBUG_STATS_RL:    cg2d_x (SOLVE_FOR_PRESSURE)  min= -1.68717607207681E+01
DEBUG_STATS_RL:    cg2d_x (SOLVE_FOR_PRESSURE)  max=  9.45616818272973E+00
DEBUG_STATS_RL:    cg2d_x (SOLVE_FOR_PRESSURE) mean= -1.75608227221982E+00
DEBUG_STATS_RL:    cg2d_x (SOLVE_FOR_PRESSURE) S.D.=  6.95281899855023E+00
(PID.TID 0000.0001)      cg2d_init_res =   4.00701421897685E-01
(PID.TID 0000.0001)      cg2d_iters(min,last) =      -1     134
(PID.TID 0000.0001)      cg2d_last_res =   7.60368818255684E-14
(PID.TID 0000.0001) // =======================================================
(PID.TID 0000.0001) // Begin MONITOR dynamic field statistics
(PID.TID 0000.0001) // =======================================================
(PID.TID 0000.0001) %MON time_tsnumber                =                    42
(PID.TID 0000.0001) %MON time_secondsf                =   3.6288000000000E+06
(PID.TID 0000.0001) %MON dynstat_eta_max              =   9.6393151709777E-01
(PID.TID 0000.0001) %MON dynstat_eta_min              =  -1.7198532844831E+00
(PID.TID 0000.0001) %MON dynstat_eta_mean             =  -3.1580249419768E-03
(PID.TID 0000.0001) %MON dynstat_eta_sd               =   6.2770482953495E-01
(PID.TID 0000.0001) %MON dynstat_eta_del2             =   2.1865090576373E-03
(PID.TID 0000.0001) %MON dynstat_uvel_max             =   1.5216595940242E-01
(PID.TID 0000.0001) %MON dynstat_uvel_min             =  -1.5211934198146E-01
(PID.TID 0000.0001) %MON dynstat_uvel_mean            =   1.2054392013845E-03
(PID.TID 0000.0001) %MON dynstat_uvel_sd              =   1.5257588631313E-02
(PID.TID 0000.0001) %MON dynstat_uvel_del2            =   8.9973981956991E-05
(PID.TID 0000.0001) %MON dynstat_vvel_max             =   1.1853534985616E-01
(PID.TID 0000.0001) %MON dynstat_vvel_min             =  -1.1351729680254E-01
(PID.TID 0000.0001) %MON dynstat_vvel_mean            =   1.1811159253375E-05
(PID.TID 0000.0001) %MON dynstat_vvel_sd              =   9.3377386114792E-03
(PID.TID 0000.0001) %MON dynstat_vvel_del2            =   7.9842203229404E-05
(PID.TID 0000.0001) %MON dynstat_wvel_max             =   1.0379286351826E-04
(PID.TID 0000.0001) %MON dynstat_wvel_min             =  -1.3525582315042E-04
(PID.TID 0000.0001) %MON dynstat_wvel_mean            =   2.6939415926406E-22
(PID.TID 0000.0001) %MON dynstat_wvel_sd              =   1.4489503993934E-05
(PID.TID 0000.0001) %MON dynstat_wvel_del2            =   1.4661214171590E-07
(PID.TID 0000.0001) %MON dynstat_theta_max            =   3.0242334767467E+01
(PID.TID 0000.0001) %MON dynstat_theta_min            =  -1.9968504785959E+00
(PID.TID 0000.0001) %MON dynstat_theta_mean           =   3.6320095761257E+00
(PID.TID 0000.0001) %MON dynstat_theta_sd             =   4.4195704120349E+00
(PID.TID 0000.0001) %MON dynstat_theta_del2           =   4.7329007967229E-03
(PID.TID 0000.0001) %MON dynstat_salt_max             =   3.7466466758206E+01
(PID.TID 0000.0001) %MON dynstat_salt_min             =   2.9835948663246E+01
(PID.TID 0000.0001) %MON dynstat_salt_mean            =   3.4727998761296E+01
(PID.TID 0000.0001) %MON dynstat_salt_sd              =   2.9635684422380E-01
(PID.TID 0000.0001) %MON dynstat_salt_del2            =   9.8536681585339E-04
(PID.TID 0000.0001) %MON dynstat_sst_max              =   3.0242334767467E+01
(PID.TID 0000.0001) %MON dynstat_sst_min              =  -1.9968504785959E+00
(PID.TID 0000.0001) %MON dynstat_sst_mean             =   1.8866630117529E+01
(PID.TID 0000.0001) %MON dynstat_sst_sd               =   9.0112478511375E+00
(PID.TID 0000.0001) %MON dynstat_sst_del2             =   2.7027333356758E-02
(PID.TID 0000.0001) %MON dynstat_sss_max              =   3.7438748021953E+01
(PID.TID 0000.0001) %MON dynstat_sss_min              =   2.9835948663246E+01
(PID.TID 0000.0001) %MON dynstat_sss_mean             =   3.4854268874037E+01
(PID.TID 0000.0001) %MON dynstat_sss_sd               =   9.7693907644728E-01
(PID.TID 0000.0001) %MON dynstat_sss_del2             =   7.8645213926328E-03
(PID.TID 0000.0001) %MON forcing_qnet_max             =   3.6386907755534E+02
(PID.TID 0000.0001) %MON forcing_qnet_min             =  -1.7379204610189E+02
(PID.TID 0000.0001) %MON forcing_qnet_mean            =  -1.4304887648557E+01
(PID.TID 0000.0001) %MON forcing_qnet_sd              =   8.3311816502922E+01
(PID.TID 0000.0001) %MON forcing_qnet_del2            =   9.5280129086967E-01
(PID.TID 0000.0001) %MON forcing_qsw_max              =   0.0000000000000E+00
(PID.TID 0000.0001) %MON forcing_qsw_min              =   0.0000000000000E+00
(PID.TID 0000.0001) %MON forcing_qsw_mean             =   0.0000000000000E+00
(PID.TID 0000.0001) %MON forcing_qsw_sd               =   0.0000000000000E+00
(PID.TID 0000.0001) %MON forcing_qsw_del2             =   0.0000000000000E+00
(PID.TID 0000.0001) %MON forcing_empmr_max            =   7.4007905936924E-05
(PID.TID 0000.0001) %MON forcing_empmr_min            =  -7.8226707008374E-05
(PID.TID 0000.0001) %MON forcing_empmr_mean           =   9.4067939086955E-07
(PID.TID 0000.0001) %MON forcing_empmr_sd             =   2.7995335629189E-05
(PID.TID 0000.0001) %MON forcing_empmr_del2           =   3.5444699729804E-07
(PID.TID 0000.0001) %MON forcing_fu_max               =   2.9908689260483E-01
(PID.TID 0000.0001) %MON forcing_fu_min               =  -2.0909265577793E-01
(PID.TID 0000.0001) %MON forcing_fu_mean              =   1.7413540754760E-02
(PID.TID 0000.0001) %MON forcing_fu_sd                =   9.1865449563120E-02
(PID.TID 0000.0001) %MON forcing_fu_del2              =   7.1428703033322E-04
(PID.TID 0000.0001) %MON forcing_fv_max               =   1.9313710530599E-01
(PID.TID 0000.0001) %MON forcing_fv_min               =  -1.8699165980021E-01
(PID.TID 0000.0001) %MON forcing_fv_mean              =  -6.9556813140996E-03
(PID.TID 0000.0001) %MON forcing_fv_sd                =   4.4663298961799E-02
(PID.TID 0000.0001) %MON forcing_fv_del2              =   5.1218138954002E-04
(PID.TID 0000.0001) %MON trAdv_CFL_u_max              =   4.9767145767344E-02
(PID.TID 0000.0001) %MON trAdv_CFL_v_max              =   2.4982526188605E-02
(PID.TID 0000.0001) %MON trAdv_CFL_w_max              =   3.4249664635934E-02
(PID.TID 0000.0001) %MON advcfl_uvel_max              =   5.0296269510002E-02
(PID.TID 0000.0001) %MON advcfl_vvel_max              =   2.3029517398599E-02
(PID.TID 0000.0001) %MON advcfl_wvel_max              =   3.1535531513864E-02
(PID.TID 0000.0001) %MON advcfl_W_hf_max              =   3.7135050579832E-02
(PID.TID 0000.0001) %MON pe_b_mean                    =   5.0420033854691E-04
(PID.TID 0000.0001) %MON ke_max                       =   1.4575085925017E-02
(PID.TID 0000.0001) %MON ke_mean                      =   1.4556698521769E-04
(PID.TID 0000.0001) %MON ke_vol                       =   1.3226782436723E+18
(PID.TID 0000.0001) %MON vort_r_min                   =  -4.7016594696131E-07
(PID.TID 0000.0001) %MON vort_r_max                   =   4.3746989308370E-07
(PID.TID 0000.0001) %MON vort_a_mean                  =  -2.5274806763881E-05
(PID.TID 0000.0001) %MON vort_a_sd                    =   7.3604500757919E-05
(PID.TID 0000.0001) %MON vort_p_mean                  =  -3.1845655001189E-05
(PID.TID 0000.0001) %MON vort_p_sd                    =   1.3162424088886E-04
(PID.TID 0000.0001) %MON surfExpan_theta_mean         =   3.0802490286760E-07
(PID.TID 0000.0001) %MON surfExpan_salt_mean          =   1.3367208977702E-08
(PID.TID 0000.0001) // =======================================================
(PID.TID 0000.0001) // End MONITOR dynamic field statistics
(PID.TID 0000.0001) // =======================================================
 EXTERNAL_FIELDS_LOAD,        42 : iP,iLd,i0,i1=    1    2    1    2 ; Wght=  0.1000000000  0.9000000000
 EXTERNAL_FIELDS_LOAD: (fu0,1),fu,fv= -3.5633E-02 -1.4435E-02 -1.6555E-02 -2.1598E-02
 EXTERNAL_FIELDS_LOAD: SST,SSS,Q,E-P= -3.8283E-01  3.4450E+01  2.4301E+02  8.7032E-06
DEBUG_STATS_RL:          Uvel (THERMODYNAMICS)  min= -1.52119341981458E-01
DEBUG_STATS_RL:          Uvel (THERMODYNAMICS)  max=  1.52165959402422E-01
DEBUG_STATS_RL:          Uvel (THERMODYNAMICS) mean=  3.54888804941913E-03
DEBUG_STATS_RL:          Uvel (THERMODYNAMICS) S.D.=  2.44274649376868E-02
DEBUG_STATS_RL:          Vvel (THERMODYNAMICS)  min= -1.13517296802538E-01
DEBUG_STATS_RL:          Vvel (THERMODYNAMICS)  max=  1.18535349856160E-01
DEBUG_STATS_RL:          Vvel (THERMODYNAMICS) mean=  4.12905734665254E-04
DEBUG_STATS_RL:          Vvel (THERMODYNAMICS) S.D.=  1.43306291849657E-02
DEBUG_STATS_RL:          Wvel (THERMODYNAMICS)  min= -1.35255823150423E-04
DEBUG_STATS_RL:          Wvel (THERMODYNAMICS)  max=  1.03792863518260E-04
DEBUG_STATS_RL:          Wvel (THERMODYNAMICS) mean= -2.72144350148972E-07
DEBUG_STATS_RL:          Wvel (THERMODYNAMICS) S.D.=  1.25860569772867E-05
DEBUG_STATS_RL:         Theta (THERMODYNAMICS)  min= -1.99555475022589E+00
DEBUG_STATS_RL:         Theta (THERMODYNAMICS)  max=  3.02643086090353E+01
DEBUG_STATS_RL:         Theta (THERMODYNAMICS) mean=  3.22550563912116E+00
DEBUG_STATS_RL:         Theta (THERMODYNAMICS) S.D.=  5.86602416008545E+00
DEBUG_STATS_RL:          Salt (THERMODYNAMICS)  min=  9.99999999999998E-03
DEBUG_STATS_RL:          Salt (THERMODYNAMICS)  max=  3.74667400611868E+01
DEBUG_STATS_RL:          Salt (THERMODYNAMICS) mean=  1.88548671189859E+01
DEBUG_STATS_RL:          Salt (THERMODYNAMICS) S.D.=  1.73003876662546E+01
DEBUG_STATS_RL:         GtNm1 (THERMODYNAMICS)  min= -4.01733030791070E-06
DEBUG_STATS_RL:         GtNm1 (THERMODYNAMICS)  max=  2.95947804606740E-06
DEBUG_STATS_RL:         GtNm1 (THERMODYNAMICS) mean=  1.20053196043243E-08
DEBUG_STATS_RL:         GtNm1 (THERMODYNAMICS) S.D.=  2.00951724155828E-07
DEBUG_STATS_RL:         GsNm1 (THERMODYNAMICS)  min= -4.10414884485248E-07
DEBUG_STATS_RL:         GsNm1 (THERMODYNAMICS)  max=  3.26563463096595E-07
DEBUG_STATS_RL:         GsNm1 (THERMODYNAMICS) mean=  1.85086168774267E-10
DEBUG_STATS_RL:         GsNm1 (THERMODYNAMICS) S.D.=  1.82269580962725E-08
DEBUG_STATS_RL:                EtaN (DYNAMICS)  min= -1.71985328448311E+00
DEBUG_STATS_RL:                EtaN (DYNAMICS)  max=  9.63931517097767E-01
DEBUG_STATS_RL:                EtaN (DYNAMICS) mean= -1.79009405934742E-01
DEBUG_STATS_RL:                EtaN (DYNAMICS) S.D.=  7.08748114021433E-01
DEBUG_STATS_RL:                Uvel (DYNAMICS)  min= -1.52119341981458E-01
DEBUG_STATS_RL:                Uvel (DYNAMICS)  max=  1.52165959402422E-01
DEBUG_STATS_RL:                Uvel (DYNAMICS) mean=  3.54888804941913E-03
DEBUG_STATS_RL:                Uvel (DYNAMICS) S.D.=  2.44274649376868E-02
DEBUG_STATS_RL:                Vvel (DYNAMICS)  min= -1.13517296802538E-01
DEBUG_STATS_RL:                Vvel (DYNAMICS)  max=  1.18535349856160E-01
DEBUG_STATS_RL:                Vvel (DYNAMICS) mean=  4.12905734665254E-04
DEBUG_STATS_RL:                Vvel (DYNAMICS) S.D.=  1.43306291849657E-02
DEBUG_STATS_RL:                Wvel (DYNAMICS)  min= -1.35255823150423E-04
DEBUG_STATS_RL:                Wvel (DYNAMICS)  max=  1.03792863518260E-04
DEBUG_STATS_RL:                Wvel (DYNAMICS) mean= -2.72144350148972E-07
DEBUG_STATS_RL:                Wvel (DYNAMICS) S.D.=  1.25860569772867E-05
DEBUG_STATS_RL:               Theta (DYNAMICS)  min= -1.99555475022589E+00
DEBUG_STATS_RL:               Theta (DYNAMICS)  max=  3.02643086090353E+01
DEBUG_STATS_RL:               Theta (DYNAMICS) mean=  3.22550563912116E+00
DEBUG_STATS_RL:               Theta (DYNAMICS) S.D.=  5.86602416008545E+00
DEBUG_STATS_RL:                Salt (DYNAMICS)  min=  9.99999999999998E-03
DEBUG_STATS_RL:                Salt (DYNAMICS)  max=  3.74667400611868E+01
DEBUG_STATS_RL:                Salt (DYNAMICS) mean=  1.88548671189859E+01
DEBUG_STATS_RL:                Salt (DYNAMICS) S.D.=  1.73003876662546E+01
DEBUG_STATS_RL:                  Gu (DYNAMICS)  min= -1.51628601051919E-01
DEBUG_STATS_RL:                  Gu (DYNAMICS)  max=  1.59386033839182E-01
DEBUG_STATS_RL:                  Gu (DYNAMICS) mean=  3.46981245806787E-03
DEBUG_STATS_RL:                  Gu (DYNAMICS) S.D.=  2.49857764958790E-02
DEBUG_STATS_RL:                  Gv (DYNAMICS)  min= -1.09133294856943E-01
DEBUG_STATS_RL:                  Gv (DYNAMICS)  max=  1.19797878434740E-01
DEBUG_STATS_RL:                  Gv (DYNAMICS) mean=  2.86060572161552E-03
DEBUG_STATS_RL:                  Gv (DYNAMICS) S.D.=  1.47695127272171E-02
DEBUG_STATS_RL:               GuNm1 (DYNAMICS)  min= -8.90189969726656E-06
DEBUG_STATS_RL:               GuNm1 (DYNAMICS)  max=  8.49146664572000E-06
DEBUG_STATS_RL:               GuNm1 (DYNAMICS) mean= -1.51578487491919E-08
DEBUG_STATS_RL:               GuNm1 (DYNAMICS) S.D.=  1.16830660833878E-06
DEBUG_STATS_RL:               GvNm1 (DYNAMICS)  min= -9.92874399216631E-06
DEBUG_STATS_RL:               GvNm1 (DYNAMICS)  max=  1.63462724004658E-05
DEBUG_STATS_RL:               GvNm1 (DYNAMICS) mean=  7.46656046181297E-07
DEBUG_STATS_RL:               GvNm1 (DYNAMICS) S.D.=  2.59245539172167E-06
DEBUG_STATS_RL:               GtNm1 (DYNAMICS)  min= -4.01733030791070E-06
DEBUG_STATS_RL:               GtNm1 (DYNAMICS)  max=  2.95947804606740E-06
DEBUG_STATS_RL:               GtNm1 (DYNAMICS) mean=  1.20053196043243E-08
DEBUG_STATS_RL:               GtNm1 (DYNAMICS) S.D.=  2.00951724155828E-07
DEBUG_STATS_RL:               GsNm1 (DYNAMICS)  min= -4.10414884485248E-07
DEBUG_STATS_RL:               GsNm1 (DYNAMICS)  max=  3.26563463096595E-07
DEBUG_STATS_RL:               GsNm1 (DYNAMICS) mean=  1.85086168774267E-10
DEBUG_STATS_RL:               GsNm1 (DYNAMICS) S.D.=  1.82269580962725E-08
DEBUG_STATS_RL:    cg2d_b (SOLVE_FOR_PRESSURE)  min= -2.11090093684077E+04
DEBUG_STATS_RL:    cg2d_b (SOLVE_FOR_PRESSURE)  max=  1.89549971308897E+04
DEBUG_STATS_RL:    cg2d_b (SOLVE_FOR_PRESSURE) mean=  3.10205350151899E+00
DEBUG_STATS_RL:    cg2d_b (SOLVE_FOR_PRESSURE) S.D.=  3.64068805406628E+03
 cg2d: Sum(rhs),rhsMax =   3.40198525221372E-01  1.38649625312145E+00
(PID.TID 0000.0001)  cg2d: iter=     1 ; resid.=  1.35390346658573E-01
(PID.TID 0000.0001)  cg2d: iter=     2 ; resid.=  9.65749308351477E-02
(PID.TID 0000.0001)  cg2d: iter=     3 ; resid.=  9.37106087829271E-02
(PID.TID 0000.0001)  cg2d: iter=     4 ; resid.=  7.88296038104343E-02
(PID.TID 0000.0001)  cg2d: iter=     5 ; resid.=  6.25318816008254E-02
(PID.TID 0000.0001)  cg2d: iter=     6 ; resid.=  4.84312668039634E-02
(PID.TID 0000.0001)  cg2d: iter=     7 ; resid.=  3.77099160081669E-02
(PID.TID 0000.0001)  cg2d: iter=     8 ; resid.=  3.08985549445390E-02
(PID.TID 0000.0001)  cg2d: iter=     9 ; resid.=  2.61384989066079E-02
(PID.TID 0000.0001)  cg2d: iter=    10 ; resid.=  2.06576177389858E-02
(PID.TID 0000.0001)  cg2d: iter=    11 ; resid.=  1.74984749033781E-02
(PID.TID 0000.0001)  cg2d: iter=    12 ; resid.=  1.55807064879906E-02
(PID.TID 0000.0001)  cg2d: iter=    13 ; resid.=  1.28751920440180E-02
(PID.TID 0000.0001)  cg2d: iter=    14 ; resid.=  1.04657224586403E-02
(PID.TID 0000.0001)  cg2d: iter=    15 ; resid.=  8.49899592449858E-03
(PID.TID 0000.0001)  cg2d: iter=    16 ; resid.=  7.24116904680169E-03
(PID.TID 0000.0001)  cg2d: iter=    17 ; resid.=  6.35197085714940E-03
(PID.TID 0000.0001)  cg2d: iter=    18 ; resid.=  5.14299135742772E-03
(PID.TID 0000.0001)  cg2d: iter=    19 ; resid.=  4.33472320759481E-03
(PID.TID 0000.0001)  cg2d: iter=    20 ; resid.=  3.53484205585586E-03
(PID.TID 0000.0001)  cg2d: iter=    21 ; resid.=  2.92083741386839E-03
(PID.TID 0000.0001)  cg2d: iter=    22 ; resid.=  2.46648006409638E-03
(PID.TID 0000.0001)  cg2d: iter=    23 ; resid.=  2.00651680155432E-03
(PID.TID 0000.0001)  cg2d: iter=    24 ; resid.=  1.64542860087949E-03
(PID.TID 0000.0001)  cg2d: iter=    25 ; resid.=  1.28708149396552E-03
(PID.TID 0000.0001)  cg2d: iter=    26 ; resid.=  1.03583173970661E-03
(PID.TID 0000.0001)  cg2d: iter=    27 ; resid.=  8.97715596343382E-04
(PID.TID 0000.0001)  cg2d: iter=    28 ; resid.=  8.00109366957288E-04
(PID.TID 0000.0001)  cg2d: iter=    29 ; resid.=  7.48232849341926E-04
(PID.TID 0000.0001)  cg2d: iter=    30 ; resid.=  6.85137389056413E-04
(PID.TID 0000.0001)  cg2d: iter=    31 ; resid.=  6.06843729933397E-04
(PID.TID 0000.0001)  cg2d: iter=    32 ; resid.=  4.65428012149561E-04
(PID.TID 0000.0001)  cg2d: iter=    33 ; resid.=  3.79710021811988E-04
(PID.TID 0000.0001)  cg2d: iter=    34 ; resid.=  3.39924522938666E-04
(PID.TID 0000.0001)  cg2d: iter=    35 ; resid.=  2.83704750920583E-04
(PID.TID 0000.0001)  cg2d: iter=    36 ; resid.=  2.25219250837204E-04
(PID.TID 0000.0001)  cg2d: iter=    37 ; resid.=  1.71426836674987E-04
(PID.TID 0000.0001)  cg2d: iter=    38 ; resid.=  1.32868621879655E-04
(PID.TID 0000.0001)  cg2d: iter=    39 ; resid.=  1.05442950057266E-04
(PID.TID 0000.0001)  cg2d: iter=    40 ; resid.=  8.16608322940314E-05
(PID.TID 0000.0001)  cg2d: iter=    41 ; resid.=  6.65117335671938E-05
(PID.TID 0000.0001)  cg2d: iter=    42 ; resid.=  5.68468097582510E-05
(PID.TID 0000.0001)  cg2d: iter=    43 ; resid.=  5.22480086828114E-05
(PID.TID 0000.0001)  cg2d: iter=    44 ; resid.=  4.70134157571585E-05
(PID.TID 0000.0001)  cg2d: iter=    45 ; resid.=  3.86679772652790E-05
(PID.TID 0000.0001)  cg2d: iter=    46 ; resid.=  3.07838061070339E-05
(PID.TID 0000.0001)  cg2d: iter=    47 ; resid.=  2.71255687221980E-05
(PID.TID 0000.0001)  cg2d: iter=    48 ; resid.=  2.47201936231885E-05
(PID.TID 0000.0001)  cg2d: iter=    49 ; resid.=  2.00943412474352E-05
(PID.TID 0000.0001)  cg2d: iter=    50 ; resid.=  1.65737572079453E-05
(PID.TID 0000.0001)  cg2d: iter=    51 ; resid.=  1.35536032365381E-05
(PID.TID 0000.0001)  cg2d: iter=    52 ; resid.=  1.18802899309873E-05
(PID.TID 0000.0001)  cg2d: iter=    53 ; resid.=  1.00449356182758E-05
(PID.TID 0000.0001)  cg2d: iter=    54 ; resid.=  8.80648560589565E-06
(PID.TID 0000.0001)  cg2d: iter=    55 ; resid.=  7.60261317518879E-06
(PID.TID 0000.0001)  cg2d: iter=    56 ; resid.=  6.22100166254957E-06
(PID.TID 0000.0001)  cg2d: iter=    57 ; resid.=  5.00820762614882E-06
(PID.TID 0000.0001)  cg2d: iter=    58 ; resid.=  3.95963009542607E-06
(PID.TID 0000.0001)  cg2d: iter=    59 ; resid.=  3.26136826894921E-06
(PID.TID 0000.0001)  cg2d: iter=    60 ; resid.=  2.49033566264815E-06
(PID.TID 0000.0001)  cg2d: iter=    61 ; resid.=  1.89781319270537E-06
(PID.TID 0000.0001)  cg2d: iter=    62 ; resid.=  1.51592588092925E-06
(PID.TID 0000.0001)  cg2d: iter=    63 ; resid.=  1.21380459091953E-06
(PID.TID 0000.0001)  cg2d: iter=    64 ; resid.=  1.02850286130417E-06
(PID.TID 0000.0001)  cg2d: iter=    65 ; resid.=  8.51754469243569E-07
(PID.TID 0000.0001)  cg2d: iter=    66 ; resid.=  7.22969322827067E-07
(PID.TID 0000.0001)  cg2d: iter=    67 ; resid.=  5.97768981155717E-07
(PID.TID 0000.0001)  cg2d: iter=    68 ; resid.=  5.24869064622388E-07
(PID.TID 0000.0001)  cg2d: iter=    69 ; resid.=  4.05561259963389E-07
(PID.TID 0000.0001)  cg2d: iter=    70 ; resid.=  2.85387225111650E-07
(PID.TID 0000.0001)  cg2d: iter=    71 ; resid.=  2.28291283396859E-07
(PID.TID 0000.0001)  cg2d: iter=    72 ; resid.=  1.84668775888962E-07
(PID.TID 0000.0001)  cg2d: iter=    73 ; resid.=  1.55142144941437E-07
(PID.TID 0000.0001)  cg2d: iter=    74 ; resid.=  1.25870978706595E-07
(PID.TID 0000.0001)  cg2d: iter=    75 ; resid.=  1.01380011832221E-07
(PID.TID 0000.0001)  cg2d: iter=    76 ; resid.=  7.77100047362340E-08
(PID.TID 0000.0001)  cg2d: iter=    77 ; resid.=  6.73667952900072E-08
(PID.TID 0000.0001)  cg2d: iter=    78 ; resid.=  5.63270061198079E-08
(PID.TID 0000.0001)  cg2d: iter=    79 ; resid.=  5.13418593078690E-08
(PID.TID 0000.0001)  cg2d: iter=    80 ; resid.=  4.60563830734394E-08
(PID.TID 0000.0001)  cg2d: iter=    81 ; resid.=  3.91673250296089E-08
(PID.TID 0000.0001)  cg2d: iter=    82 ; resid.=  3.34112280067867E-08
(PID.TID 0000.0001)  cg2d: iter=    83 ; resid.=  2.56954383031990E-08
(PID.TID 0000.0001)  cg2d: iter=    84 ; resid.=  2.01235498628968E-08
(PID.TID 0000.0001)  cg2d: iter=    85 ; resid.=  1.56757790468647E-08
(PID.TID 0000.0001)  cg2d: iter=    86 ; resid.=  1.20346172506301E-08
(PID.TID 0000.0001)  cg2d: iter=    87 ; resid.=  9.18621591478500E-09
(PID.TID 0000.0001)  cg2d: iter=    88 ; resid.=  7.67477755114758E-09
(PID.TID 0000.0001)  cg2d: iter=    89 ; resid.=  7.62510005717847E-09
(PID.TID 0000.0001)  cg2d: iter=    90 ; resid.=  6.78271129745615E-09
(PID.TID 0000.0001)  cg2d: iter=    91 ; resid.=  5.23258295886832E-09
(PID.TID 0000.0001)  cg2d: iter=    92 ; resid.=  3.84763576057944E-09
(PID.TID 0000.0001)  cg2d: iter=    93 ; resid.=  2.73873686776317E-09
(PID.TID 0000.0001)  cg2d: iter=    94 ; resid.=  1.92563515652381E-09
(PID.TID 0000.0001)  cg2d: iter=    95 ; resid.=  1.55124626523878E-09
(PID.TID 0000.0001)  cg2d: iter=    96 ; resid.=  1.26509911968126E-09
(PID.TID 0000.0001)  cg2d: iter=    97 ; resid.=  1.01415920539934E-09
(PID.TID 0000.0001)  cg2d: iter=    98 ; resid.=  7.67573192087579E-10
(PID.TID 0000.0001)  cg2d: iter=    99 ; resid.=  6.27435683214226E-10
(PID.TID 0000.0001)  cg2d: iter=   100 ; resid.=  6.18101405411651E-10
(PID.TID 0000.0001)  cg2d: iter=   101 ; resid.=  5.71369007008619E-10
(PID.TID 0000.0001)  cg2d: iter=   102 ; resid.=  4.36361516009811E-10
(PID.TID 0000.0001)  cg2d: iter=   103 ; resid.=  3.11442207450064E-10
(PID.TID 0000.0001)  cg2d: iter=   104 ; resid.=  2.54222951167286E-10
(PID.TID 0000.0001)  cg2d: iter=   105 ; resid.=  2.02642436574683E-10
(PID.TID 0000.0001)  cg2d: iter=   106 ; resid.=  1.63871945811493E-10
(PID.TID 0000.0001)  cg2d: iter=   107 ; resid.=  1.31109280347987E-10
(PID.TID 0000.0001)  cg2d: iter=   108 ; resid.=  1.06147500675347E-10
(PID.TID 0000.0001)  cg2d: iter=   109 ; resid.=  8.81811835313925E-11
(PID.TID 0000.0001)  cg2d: iter=   110 ; resid.=  6.73928693669229E-11
(PID.TID 0000.0001)  cg2d: iter=   111 ; resid.=  5.31001810481244E-11
(PID.TID 0000.0001)  cg2d: iter=   112 ; resid.=  4.15700886569270E-11
(PID.TID 0000.0001)  cg2d: iter=   113 ; resid.=  3.23907089034331E-11
(PID.TID 0000.0001)  cg2d: iter=   114 ; resid.=  2.53907947898266E-11
(PID.TID 0000.0001)  cg2d: iter=   115 ; resid.=  1.97219306967752E-11
(PID.TID 0000.0001)  cg2d: iter=   116 ; resid.=  1.37436212107219E-11
(PID.TID 0000.0001)  cg2d: iter=   117 ; resid.=  1.04608007213281E-11
(PID.TID 0000.0001)  cg2d: iter=   118 ; resid.=  7.55422565633061E-12
(PID.TID 0000.0001)  cg2d: iter=   119 ; resid.=  5.96017254073743E-12
(PID.TID 0000.0001)  cg2d: iter=   120 ; resid.=  4.42694297426546E-12
(PID.TID 0000.0001)  cg2d: iter=   121 ; resid.=  3.36054912456919E-12
(PID.TID 0000.0001)  cg2d: iter=   122 ; resid.=  2.71032228727039E-12
(PID.TID 0000.0001)  cg2d: iter=   123 ; resid.=  2.06865921009927E-12
(PID.TID 0000.0001)  cg2d: iter=   124 ; resid.=  1.42833467737001E-12
(PID.TID 0000.0001)  cg2d: iter=   125 ; resid.=  9.99706122943038E-13
(PID.TID 0000.0001)  cg2d: iter=   126 ; resid.=  7.49180766620436E-13
(PID.TID 0000.0001)  cg2d: iter=   127 ; resid.=  5.76569350000808E-13
(PID.TID 0000.0001)  cg2d: iter=   128 ; resid.=  4.24803506301398E-13
(PID.TID 0000.0001)  cg2d: iter=   129 ; resid.=  3.12918060525131E-13
(PID.TID 0000.0001)  cg2d: iter=   130 ; resid.=  2.48371620285858E-13
(PID.TID 0000.0001)  cg2d: iter=   131 ; resid.=  2.02956065324632E-13
(PID.TID 0000.0001)  cg2d: iter=   132 ; resid.=  1.68271216216669E-13
(PID.TID 0000.0001)  cg2d: iter=   133 ; resid.=  1.21839988588885E-13
(PID.TID 0000.0001)  cg2d: iter=   134 ; resid.=  9.04191020726714E-14
DEBUG_STATS_RL:    cg2d_x (SOLVE_FOR_PRESSURE)  min= -1.69673637449171E+01
DEBUG_STATS_RL:    cg2d_x (SOLVE_FOR_PRESSURE)  max=  9.56523015799811E+00
DEBUG_STATS_RL:    cg2d_x (SOLVE_FOR_PRESSURE) mean= -1.76857908174343E+00
DEBUG_STATS_RL:    cg2d_x (SOLVE_FOR_PRESSURE) S.D.=  6.98748651428283E+00
(PID.TID 0000.0001)      cg2d_init_res =   3.94534410970097E-01
(PID.TID 0000.0001)      cg2d_iters(min,last) =      -1     134
(PID.TID 0000.0001)      cg2d_last_res =   9.04191020726714E-14
(PID.TID 0000.0001) // =======================================================
(PID.TID 0000.0001) // Begin MONITOR dynamic field statistics
(PID.TID 0000.0001) // =======================================================
(PID.TID 0000.0001) %MON time_tsnumber                =                    43
(PID.TID 0000.0001) %MON time_secondsf                =   3.7152000000000E+06
(PID.TID 0000.0001) %MON dynstat_eta_max              =   9.7504894576938E-01
(PID.TID 0000.0001) %MON dynstat_eta_min              =  -1.7295987507556E+00
(PID.TID 0000.0001) %MON dynstat_eta_mean             =  -3.2366081868991E-03
(PID.TID 0000.0001) %MON dynstat_eta_sd               =   6.3023072013703E-01
(PID.TID 0000.0001) %MON dynstat_eta_del2             =   2.1936907281084E-03
(PID.TID 0000.0001) %MON dynstat_uvel_max             =   1.5787656951858E-01
(PID.TID 0000.0001) %MON dynstat_uvel_min             =  -1.5158132799208E-01
(PID.TID 0000.0001) %MON dynstat_uvel_mean            =   1.1312453059623E-03
(PID.TID 0000.0001) %MON dynstat_uvel_sd              =   1.5369541080827E-02
(PID.TID 0000.0001) %MON dynstat_uvel_del2            =   9.0863062093691E-05
(PID.TID 0000.0001) %MON dynstat_vvel_max             =   1.1629248616196E-01
(PID.TID 0000.0001) %MON dynstat_vvel_min             =  -1.1286495756624E-01
(PID.TID 0000.0001) %MON dynstat_vvel_mean            =   2.2701529325982E-05
(PID.TID 0000.0001) %MON dynstat_vvel_sd              =   9.2925960530397E-03
(PID.TID 0000.0001) %MON dynstat_vvel_del2            =   7.9586741910519E-05
(PID.TID 0000.0001) %MON dynstat_wvel_max             =   1.0594570354544E-04
(PID.TID 0000.0001) %MON dynstat_wvel_min             =  -1.3396965477751E-04
(PID.TID 0000.0001) %MON dynstat_wvel_mean            =   1.5823036251027E-22
(PID.TID 0000.0001) %MON dynstat_wvel_sd              =   1.4381965278440E-05
(PID.TID 0000.0001) %MON dynstat_wvel_del2            =   1.4458766202509E-07
(PID.TID 0000.0001) %MON dynstat_theta_max            =   3.0264308609035E+01
(PID.TID 0000.0001) %MON dynstat_theta_min            =  -1.9955547502259E+00
(PID.TID 0000.0001) %MON dynstat_theta_mean           =   3.6320831883411E+00
(PID.TID 0000.0001) %MON dynstat_theta_sd             =   4.4197901164696E+00
(PID.TID 0000.0001) %MON dynstat_theta_del2           =   4.7318384324953E-03
(PID.TID 0000.0001) %MON dynstat_salt_max             =   3.7466740061187E+01
(PID.TID 0000.0001) %MON dynstat_salt_min             =   2.9838252422180E+01
(PID.TID 0000.0001) %MON dynstat_salt_mean            =   3.4727999183830E+01
(PID.TID 0000.0001) %MON dynstat_salt_sd              =   2.9636332599907E-01
(PID.TID 0000.0001) %MON dynstat_salt_del2            =   9.8527707178886E-04
(PID.TID 0000.0001) %MON dynstat_sst_max              =   3.0264308609035E+01
(PID.TID 0000.0001) %MON dynstat_sst_min              =  -1.9955547502259E+00
(PID.TID 0000.0001) %MON dynstat_sst_mean             =   1.8877132429650E+01
(PID.TID 0000.0001) %MON dynstat_sst_sd               =   9.0102684675390E+00
(PID.TID 0000.0001) %MON dynstat_sst_del2             =   2.7081871630672E-02
(PID.TID 0000.0001) %MON dynstat_sss_max              =   3.7438902244425E+01
(PID.TID 0000.0001) %MON dynstat_sss_min              =   2.9838252422180E+01
(PID.TID 0000.0001) %MON dynstat_sss_mean             =   3.4854285082682E+01
(PID.TID 0000.0001) %MON dynstat_sss_sd               =   9.7704918153171E-01
(PID.TID 0000.0001) %MON dynstat_sss_del2             =   7.8691303091607E-03
(PID.TID 0000.0001) %MON forcing_qnet_max             =   3.6251486816406E+02
(PID.TID 0000.0001) %MON forcing_qnet_min             =  -1.7355252685547E+02
(PID.TID 0000.0001) %MON forcing_qnet_mean            =  -1.4219978481153E+01
(PID.TID 0000.0001) %MON forcing_qnet_sd              =   8.2371696760825E+01
(PID.TID 0000.0001) %MON forcing_qnet_del2            =   9.5171455231292E-01
(PID.TID 0000.0001) %MON forcing_qsw_max              =   0.0000000000000E+00
(PID.TID 0000.0001) %MON forcing_qsw_min              =   0.0000000000000E+00
(PID.TID 0000.0001) %MON forcing_qsw_mean             =   0.0000000000000E+00
(PID.TID 0000.0001) %MON forcing_qsw_sd               =   0.0000000000000E+00
(PID.TID 0000.0001) %MON forcing_qsw_del2             =   0.0000000000000E+00
(PID.TID 0000.0001) %MON forcing_empmr_max            =   7.3693816204923E-05
(PID.TID 0000.0001) %MON forcing_empmr_min            =  -7.8306351269930E-05
(PID.TID 0000.0001) %MON forcing_empmr_mean           =   9.4136178812951E-07
(PID.TID 0000.0001) %MON forcing_empmr_sd             =   2.7989109089205E-05
(PID.TID 0000.0001) %MON forcing_empmr_del2           =   3.5476172595568E-07
(PID.TID 0000.0001) %MON forcing_fu_max               =   3.0047405064106E-01
(PID.TID 0000.0001) %MON forcing_fu_min               =  -2.1116244494915E-01
(PID.TID 0000.0001) %MON forcing_fu_mean              =   1.7467840970229E-02
(PID.TID 0000.0001) %MON forcing_fu_sd                =   9.2128273679121E-02
(PID.TID 0000.0001) %MON forcing_fu_del2              =   7.2179649985701E-04
(PID.TID 0000.0001) %MON forcing_fv_max               =   1.9524907022715E-01
(PID.TID 0000.0001) %MON forcing_fv_min               =  -1.9016355872154E-01
(PID.TID 0000.0001) %MON forcing_fv_mean              =  -7.0209422208148E-03
(PID.TID 0000.0001) %MON forcing_fv_sd                =   4.4736678888232E-02
(PID.TID 0000.0001) %MON forcing_fv_del2              =   5.1897923714387E-04
(PID.TID 0000.0001) %MON trAdv_CFL_u_max              =   5.0306485042065E-02
(PID.TID 0000.0001) %MON trAdv_CFL_v_max              =   2.6072907892278E-02
(PID.TID 0000.0001) %MON trAdv_CFL_w_max              =   3.4254111816783E-02
(PID.TID 0000.0001) %MON advcfl_uvel_max              =   5.0206879461272E-02
(PID.TID 0000.0001) %MON advcfl_vvel_max              =   2.2593764954025E-02
(PID.TID 0000.0001) %MON advcfl_wvel_max              =   3.2362585995051E-02
(PID.TID 0000.0001) %MON advcfl_W_hf_max              =   3.8835103194061E-02
(PID.TID 0000.0001) %MON pe_b_mean                    =   5.0826685755463E-04
(PID.TID 0000.0001) %MON ke_max                       =   1.4333233503759E-02
(PID.TID 0000.0001) %MON ke_mean                      =   1.4666856682044E-04
(PID.TID 0000.0001) %MON ke_vol                       =   1.3226782436723E+18
(PID.TID 0000.0001) %MON vort_r_min                   =  -4.7858616514510E-07
(PID.TID 0000.0001) %MON vort_r_max                   =   4.3331727023793E-07
(PID.TID 0000.0001) %MON vort_a_mean                  =  -2.5274806735513E-05
(PID.TID 0000.0001) %MON vort_a_sd                    =   7.3604487288314E-05
(PID.TID 0000.0001) %MON vort_p_mean                  =  -3.1845654965446E-05
(PID.TID 0000.0001) %MON vort_p_sd                    =   1.3162413171250E-04
(PID.TID 0000.0001) %MON surfExpan_theta_mean         =   2.7727940342282E-07
(PID.TID 0000.0001) %MON surfExpan_salt_mean          =   3.2870158847908E-08
(PID.TID 0000.0001) // =======================================================
(PID.TID 0000.0001) // End MONITOR dynamic field statistics
(PID.TID 0000.0001) // =======================================================
 EXTERNAL_FIELDS_LOAD,        43 : iP,iLd,i0,i1=    1    2    1    2 ; Wght=  0.0666666667  0.9333333333
 EXTERNAL_FIELDS_LOAD: (fu0,1),fu,fv= -3.5633E-02 -1.4435E-02 -1.5848E-02 -2.0277E-02
 EXTERNAL_FIELDS_LOAD: SST,SSS,Q,E-P= -4.3250E-01  3.4441E+01  2.4217E+02  8.5945E-06
DEBUG_STATS_RL:          Uvel (THERMODYNAMICS)  min= -1.51581327992082E-01
DEBUG_STATS_RL:          Uvel (THERMODYNAMICS)  max=  1.57876569518585E-01
DEBUG_STATS_RL:          Uvel (THERMODYNAMICS) mean=  3.65163734215381E-03
DEBUG_STATS_RL:          Uvel (THERMODYNAMICS) S.D.=  2.46103934084025E-02
DEBUG_STATS_RL:          Vvel (THERMODYNAMICS)  min= -1.12864957566237E-01
DEBUG_STATS_RL:          Vvel (THERMODYNAMICS)  max=  1.16292486161961E-01
DEBUG_STATS_RL:          Vvel (THERMODYNAMICS) mean=  6.10363849441672E-04
DEBUG_STATS_RL:          Vvel (THERMODYNAMICS) S.D.=  1.43635534251791E-02
DEBUG_STATS_RL:          Wvel (THERMODYNAMICS)  min= -1.33969654777505E-04
DEBUG_STATS_RL:          Wvel (THERMODYNAMICS)  max=  1.05945703545438E-04
DEBUG_STATS_RL:          Wvel (THERMODYNAMICS) mean= -2.28528971883346E-07
DEBUG_STATS_RL:          Wvel (THERMODYNAMICS) S.D.=  1.24987803384597E-05
DEBUG_STATS_RL:         Theta (THERMODYNAMICS)  min= -1.99425230720793E+00
DEBUG_STATS_RL:         Theta (THERMODYNAMICS)  max=  3.02851703920111E+01
DEBUG_STATS_RL:         Theta (THERMODYNAMICS) mean=  3.22600589939721E+00
DEBUG_STATS_RL:         Theta (THERMODYNAMICS) S.D.=  5.86684559548412E+00
DEBUG_STATS_RL:          Salt (THERMODYNAMICS)  min=  9.99999999999998E-03
DEBUG_STATS_RL:          Salt (THERMODYNAMICS)  max=  3.74670672413083E+01
DEBUG_STATS_RL:          Salt (THERMODYNAMICS) mean=  1.88548801963701E+01
DEBUG_STATS_RL:          Salt (THERMODYNAMICS) S.D.=  1.73004001406399E+01
DEBUG_STATS_RL:         GtNm1 (THERMODYNAMICS)  min= -4.18464645649452E-06
DEBUG_STATS_RL:         GtNm1 (THERMODYNAMICS)  max=  2.94232018607263E-06
DEBUG_STATS_RL:         GtNm1 (THERMODYNAMICS) mean=  1.13369348471767E-08
DEBUG_STATS_RL:         GtNm1 (THERMODYNAMICS) S.D.=  2.00865145751072E-07
DEBUG_STATS_RL:         GsNm1 (THERMODYNAMICS)  min= -4.34496571807183E-07
DEBUG_STATS_RL:         GsNm1 (THERMODYNAMICS)  max=  3.24170627240784E-07
DEBUG_STATS_RL:         GsNm1 (THERMODYNAMICS) mean=  2.11142897303706E-10
DEBUG_STATS_RL:         GsNm1 (THERMODYNAMICS) S.D.=  1.83127563648063E-08
DEBUG_STATS_RL:                EtaN (DYNAMICS)  min= -1.72959875075555E+00
DEBUG_STATS_RL:                EtaN (DYNAMICS)  max=  9.75048945769382E-01
DEBUG_STATS_RL:                EtaN (DYNAMICS) mean= -1.80283290697599E-01
DEBUG_STATS_RL:                EtaN (DYNAMICS) S.D.=  7.12282009610893E-01
DEBUG_STATS_RL:                Uvel (DYNAMICS)  min= -1.51581327992082E-01
DEBUG_STATS_RL:                Uvel (DYNAMICS)  max=  1.57876569518585E-01
DEBUG_STATS_RL:                Uvel (DYNAMICS) mean=  3.65163734215381E-03
DEBUG_STATS_RL:                Uvel (DYNAMICS) S.D.=  2.46103934084025E-02
DEBUG_STATS_RL:                Vvel (DYNAMICS)  min= -1.12864957566237E-01
DEBUG_STATS_RL:                Vvel (DYNAMICS)  max=  1.16292486161961E-01
DEBUG_STATS_RL:                Vvel (DYNAMICS) mean=  6.10363849441672E-04
DEBUG_STATS_RL:                Vvel (DYNAMICS) S.D.=  1.43635534251791E-02
DEBUG_STATS_RL:                Wvel (DYNAMICS)  min= -1.33969654777505E-04
DEBUG_STATS_RL:                Wvel (DYNAMICS)  max=  1.05945703545438E-04
DEBUG_STATS_RL:                Wvel (DYNAMICS) mean= -2.28528971883346E-07
DEBUG_STATS_RL:                Wvel (DYNAMICS) S.D.=  1.24987803384597E-05
DEBUG_STATS_RL:               Theta (DYNAMICS)  min= -1.99425230720793E+00
DEBUG_STATS_RL:               Theta (DYNAMICS)  max=  3.02851703920111E+01
DEBUG_STATS_RL:               Theta (DYNAMICS) mean=  3.22600589939721E+00
DEBUG_STATS_RL:               Theta (DYNAMICS) S.D.=  5.86684559548412E+00
DEBUG_STATS_RL:                Salt (DYNAMICS)  min=  9.99999999999998E-03
DEBUG_STATS_RL:                Salt (DYNAMICS)  max=  3.74670672413083E+01
DEBUG_STATS_RL:                Salt (DYNAMICS) mean=  1.88548801963701E+01
DEBUG_STATS_RL:                Salt (DYNAMICS) S.D.=  1.73004001406399E+01
DEBUG_STATS_RL:                  Gu (DYNAMICS)  min= -1.50796316963065E-01
DEBUG_STATS_RL:                  Gu (DYNAMICS)  max=  1.63326647297288E-01
DEBUG_STATS_RL:                  Gu (DYNAMICS) mean=  3.57898675492733E-03
DEBUG_STATS_RL:                  Gu (DYNAMICS) S.D.=  2.50742125360287E-02
DEBUG_STATS_RL:                  Gv (DYNAMICS)  min= -1.08328505728612E-01
DEBUG_STATS_RL:                  Gv (DYNAMICS)  max=  1.16968612543630E-01
DEBUG_STATS_RL:                  Gv (DYNAMICS) mean=  3.05545903190479E-03
DEBUG_STATS_RL:                  Gv (DYNAMICS) S.D.=  1.49523150789517E-02
DEBUG_STATS_RL:               GuNm1 (DYNAMICS)  min= -8.98926027280232E-06
DEBUG_STATS_RL:               GuNm1 (DYNAMICS)  max=  8.54582488043107E-06
DEBUG_STATS_RL:               GuNm1 (DYNAMICS) mean= -1.37286402176467E-08
DEBUG_STATS_RL:               GuNm1 (DYNAMICS) S.D.=  1.16889087390334E-06
DEBUG_STATS_RL:               GvNm1 (DYNAMICS)  min= -9.82586614778304E-06
DEBUG_STATS_RL:               GvNm1 (DYNAMICS)  max=  1.63521341757604E-05
DEBUG_STATS_RL:               GvNm1 (DYNAMICS) mean=  7.46192185289344E-07
DEBUG_STATS_RL:               GvNm1 (DYNAMICS) S.D.=  2.59068930345930E-06
DEBUG_STATS_RL:               GtNm1 (DYNAMICS)  min= -4.18464645649452E-06
DEBUG_STATS_RL:               GtNm1 (DYNAMICS)  max=  2.94232018607263E-06
DEBUG_STATS_RL:               GtNm1 (DYNAMICS) mean=  1.13369348471767E-08
DEBUG_STATS_RL:               GtNm1 (DYNAMICS) S.D.=  2.00865145751072E-07
DEBUG_STATS_RL:               GsNm1 (DYNAMICS)  min= -4.34496571807183E-07
DEBUG_STATS_RL:               GsNm1 (DYNAMICS)  max=  3.24170627240784E-07
DEBUG_STATS_RL:               GsNm1 (DYNAMICS) mean=  2.11142897303706E-10
DEBUG_STATS_RL:               GsNm1 (DYNAMICS) S.D.=  1.83127563648063E-08
DEBUG_STATS_RL:    cg2d_b (SOLVE_FOR_PRESSURE)  min= -2.11608071959614E+04
DEBUG_STATS_RL:    cg2d_b (SOLVE_FOR_PRESSURE)  max=  1.95864890476471E+04
DEBUG_STATS_RL:    cg2d_b (SOLVE_FOR_PRESSURE) mean=  3.17742442240437E+00
DEBUG_STATS_RL:    cg2d_b (SOLVE_FOR_PRESSURE) S.D.=  3.64087948823221E+03
 cg2d: Sum(rhs),rhsMax =   3.47611386926116E-01  1.38989847312001E+00
(PID.TID 0000.0001)  cg2d: iter=     1 ; resid.=  1.32459510263678E-01
(PID.TID 0000.0001)  cg2d: iter=     2 ; resid.=  9.32401230456106E-02
(PID.TID 0000.0001)  cg2d: iter=     3 ; resid.=  8.96809337181067E-02
(PID.TID 0000.0001)  cg2d: iter=     4 ; resid.=  7.40012161250992E-02
(PID.TID 0000.0001)  cg2d: iter=     5 ; resid.=  5.81681572895450E-02
(PID.TID 0000.0001)  cg2d: iter=     6 ; resid.=  4.54529110504012E-02
(PID.TID 0000.0001)  cg2d: iter=     7 ; resid.=  3.56120887721797E-02
(PID.TID 0000.0001)  cg2d: iter=     8 ; resid.=  2.92916976713672E-02
(PID.TID 0000.0001)  cg2d: iter=     9 ; resid.=  2.44579679954593E-02
(PID.TID 0000.0001)  cg2d: iter=    10 ; resid.=  1.92028104814562E-02
(PID.TID 0000.0001)  cg2d: iter=    11 ; resid.=  1.61917633624723E-02
(PID.TID 0000.0001)  cg2d: iter=    12 ; resid.=  1.44771584262337E-02
(PID.TID 0000.0001)  cg2d: iter=    13 ; resid.=  1.19723988367688E-02
(PID.TID 0000.0001)  cg2d: iter=    14 ; resid.=  9.57368165481409E-03
(PID.TID 0000.0001)  cg2d: iter=    15 ; resid.=  7.59983964664336E-03
(PID.TID 0000.0001)  cg2d: iter=    16 ; resid.=  6.45544968718696E-03
(PID.TID 0000.0001)  cg2d: iter=    17 ; resid.=  5.70008384981792E-03
(PID.TID 0000.0001)  cg2d: iter=    18 ; resid.=  4.60843704939138E-03
(PID.TID 0000.0001)  cg2d: iter=    19 ; resid.=  3.90235861175711E-03
(PID.TID 0000.0001)  cg2d: iter=    20 ; resid.=  3.21380050670160E-03
(PID.TID 0000.0001)  cg2d: iter=    21 ; resid.=  2.73368163749499E-03
(PID.TID 0000.0001)  cg2d: iter=    22 ; resid.=  2.38522616402974E-03
(PID.TID 0000.0001)  cg2d: iter=    23 ; resid.=  1.99455092665814E-03
(PID.TID 0000.0001)  cg2d: iter=    24 ; resid.=  1.65910786958534E-03
(PID.TID 0000.0001)  cg2d: iter=    25 ; resid.=  1.32839921239747E-03
(PID.TID 0000.0001)  cg2d: iter=    26 ; resid.=  1.08665659221800E-03
(PID.TID 0000.0001)  cg2d: iter=    27 ; resid.=  9.74858631303284E-04
(PID.TID 0000.0001)  cg2d: iter=    28 ; resid.=  8.74306650574609E-04
(PID.TID 0000.0001)  cg2d: iter=    29 ; resid.=  8.05502850840430E-04
(PID.TID 0000.0001)  cg2d: iter=    30 ; resid.=  7.28903546635100E-04
(PID.TID 0000.0001)  cg2d: iter=    31 ; resid.=  6.41071576876972E-04
(PID.TID 0000.0001)  cg2d: iter=    32 ; resid.=  4.92007175335608E-04
(PID.TID 0000.0001)  cg2d: iter=    33 ; resid.=  3.95045815756482E-04
(PID.TID 0000.0001)  cg2d: iter=    34 ; resid.=  3.43326041889302E-04
(PID.TID 0000.0001)  cg2d: iter=    35 ; resid.=  2.83763714548717E-04
(PID.TID 0000.0001)  cg2d: iter=    36 ; resid.=  2.29978857577244E-04
(PID.TID 0000.0001)  cg2d: iter=    37 ; resid.=  1.77495240232286E-04
(PID.TID 0000.0001)  cg2d: iter=    38 ; resid.=  1.37227130117620E-04
(PID.TID 0000.0001)  cg2d: iter=    39 ; resid.=  1.07049838147298E-04
(PID.TID 0000.0001)  cg2d: iter=    40 ; resid.=  8.35319576639652E-05
(PID.TID 0000.0001)  cg2d: iter=    41 ; resid.=  6.74332029887867E-05
(PID.TID 0000.0001)  cg2d: iter=    42 ; resid.=  5.63999945265772E-05
(PID.TID 0000.0001)  cg2d: iter=    43 ; resid.=  5.07599632022342E-05
(PID.TID 0000.0001)  cg2d: iter=    44 ; resid.=  4.48733610854811E-05
(PID.TID 0000.0001)  cg2d: iter=    45 ; resid.=  3.62178955817061E-05
(PID.TID 0000.0001)  cg2d: iter=    46 ; resid.=  2.77383357978813E-05
(PID.TID 0000.0001)  cg2d: iter=    47 ; resid.=  2.31370782383664E-05
(PID.TID 0000.0001)  cg2d: iter=    48 ; resid.=  1.97984476204665E-05
(PID.TID 0000.0001)  cg2d: iter=    49 ; resid.=  1.52774887766387E-05
(PID.TID 0000.0001)  cg2d: iter=    50 ; resid.=  1.16455884549253E-05
(PID.TID 0000.0001)  cg2d: iter=    51 ; resid.=  8.54503845133953E-06
(PID.TID 0000.0001)  cg2d: iter=    52 ; resid.=  6.86560039073131E-06
(PID.TID 0000.0001)  cg2d: iter=    53 ; resid.=  5.39200762574994E-06
(PID.TID 0000.0001)  cg2d: iter=    54 ; resid.=  4.49246289587725E-06
(PID.TID 0000.0001)  cg2d: iter=    55 ; resid.=  3.76137715295488E-06
(PID.TID 0000.0001)  cg2d: iter=    56 ; resid.=  3.19271899084177E-06
(PID.TID 0000.0001)  cg2d: iter=    57 ; resid.=  2.78465653677292E-06
(PID.TID 0000.0001)  cg2d: iter=    58 ; resid.=  2.37426235870402E-06
(PID.TID 0000.0001)  cg2d: iter=    59 ; resid.=  2.08792741865571E-06
(PID.TID 0000.0001)  cg2d: iter=    60 ; resid.=  1.67835846077189E-06
(PID.TID 0000.0001)  cg2d: iter=    61 ; resid.=  1.36590468970692E-06
(PID.TID 0000.0001)  cg2d: iter=    62 ; resid.=  1.15894762503930E-06
(PID.TID 0000.0001)  cg2d: iter=    63 ; resid.=  9.63139605092099E-07
(PID.TID 0000.0001)  cg2d: iter=    64 ; resid.=  8.21516439307979E-07
(PID.TID 0000.0001)  cg2d: iter=    65 ; resid.=  6.75929487688171E-07
(PID.TID 0000.0001)  cg2d: iter=    66 ; resid.=  5.70709398316089E-07
(PID.TID 0000.0001)  cg2d: iter=    67 ; resid.=  4.74775286815980E-07
(PID.TID 0000.0001)  cg2d: iter=    68 ; resid.=  4.21597921288707E-07
(PID.TID 0000.0001)  cg2d: iter=    69 ; resid.=  3.29069346151460E-07
(PID.TID 0000.0001)  cg2d: iter=    70 ; resid.=  2.31052828102181E-07
(PID.TID 0000.0001)  cg2d: iter=    71 ; resid.=  1.82105425465979E-07
(PID.TID 0000.0001)  cg2d: iter=    72 ; resid.=  1.41308583402525E-07
(PID.TID 0000.0001)  cg2d: iter=    73 ; resid.=  1.13261110968519E-07
(PID.TID 0000.0001)  cg2d: iter=    74 ; resid.=  8.91291348359882E-08
(PID.TID 0000.0001)  cg2d: iter=    75 ; resid.=  6.93371322600956E-08
(PID.TID 0000.0001)  cg2d: iter=    76 ; resid.=  5.04250204607771E-08
(PID.TID 0000.0001)  cg2d: iter=    77 ; resid.=  4.01349992738944E-08
(PID.TID 0000.0001)  cg2d: iter=    78 ; resid.=  3.10031867684866E-08
(PID.TID 0000.0001)  cg2d: iter=    79 ; resid.=  2.67848217809124E-08
(PID.TID 0000.0001)  cg2d: iter=    80 ; resid.=  2.44635829050964E-08
(PID.TID 0000.0001)  cg2d: iter=    81 ; resid.=  2.15180959614470E-08
(PID.TID 0000.0001)  cg2d: iter=    82 ; resid.=  2.01519790980183E-08
(PID.TID 0000.0001)  cg2d: iter=    83 ; resid.=  1.74105061082979E-08
(PID.TID 0000.0001)  cg2d: iter=    84 ; resid.=  1.47460022756853E-08
(PID.TID 0000.0001)  cg2d: iter=    85 ; resid.=  1.20854814204058E-08
(PID.TID 0000.0001)  cg2d: iter=    86 ; resid.=  9.29804582556264E-09
(PID.TID 0000.0001)  cg2d: iter=    87 ; resid.=  6.84588452101102E-09
(PID.TID 0000.0001)  cg2d: iter=    88 ; resid.=  5.33739843078492E-09
(PID.TID 0000.0001)  cg2d: iter=    89 ; resid.=  5.16193221802861E-09
(PID.TID 0000.0001)  cg2d: iter=    90 ; resid.=  4.69058813668481E-09
(PID.TID 0000.0001)  cg2d: iter=    91 ; resid.=  3.83675183761770E-09
(PID.TID 0000.0001)  cg2d: iter=    92 ; resid.=  3.05180415701910E-09
(PID.TID 0000.0001)  cg2d: iter=    93 ; resid.=  2.27040529021227E-09
(PID.TID 0000.0001)  cg2d: iter=    94 ; resid.=  1.63730201069715E-09
(PID.TID 0000.0001)  cg2d: iter=    95 ; resid.=  1.33892028330835E-09
(PID.TID 0000.0001)  cg2d: iter=    96 ; resid.=  1.08599270062140E-09
(PID.TID 0000.0001)  cg2d: iter=    97 ; resid.=  8.33848450461056E-10
(PID.TID 0000.0001)  cg2d: iter=    98 ; resid.=  6.02881472740332E-10
(PID.TID 0000.0001)  cg2d: iter=    99 ; resid.=  4.58267929508842E-10
(PID.TID 0000.0001)  cg2d: iter=   100 ; resid.=  4.29785053304738E-10
(PID.TID 0000.0001)  cg2d: iter=   101 ; resid.=  3.91131293794069E-10
(PID.TID 0000.0001)  cg2d: iter=   102 ; resid.=  3.02451065725054E-10
(PID.TID 0000.0001)  cg2d: iter=   103 ; resid.=  2.16321808048041E-10
(PID.TID 0000.0001)  cg2d: iter=   104 ; resid.=  1.78812812168525E-10
(PID.TID 0000.0001)  cg2d: iter=   105 ; resid.=  1.45438166703687E-10
(PID.TID 0000.0001)  cg2d: iter=   106 ; resid.=  1.22413563607716E-10
(PID.TID 0000.0001)  cg2d: iter=   107 ; resid.=  1.03499291851852E-10
(PID.TID 0000.0001)  cg2d: iter=   108 ; resid.=  8.83916401639651E-11
(PID.TID 0000.0001)  cg2d: iter=   109 ; resid.=  7.62972868154372E-11
(PID.TID 0000.0001)  cg2d: iter=   110 ; resid.=  5.82329341895157E-11
(PID.TID 0000.0001)  cg2d: iter=   111 ; resid.=  4.45005740550506E-11
(PID.TID 0000.0001)  cg2d: iter=   112 ; resid.=  3.49602902663319E-11
(PID.TID 0000.0001)  cg2d: iter=   113 ; resid.=  2.71674532483704E-11
(PID.TID 0000.0001)  cg2d: iter=   114 ; resid.=  2.10702663029341E-11
(PID.TID 0000.0001)  cg2d: iter=   115 ; resid.=  1.60590404593772E-11
(PID.TID 0000.0001)  cg2d: iter=   116 ; resid.=  1.11413782506435E-11
(PID.TID 0000.0001)  cg2d: iter=   117 ; resid.=  8.92818299539447E-12
(PID.TID 0000.0001)  cg2d: iter=   118 ; resid.=  6.85194180705546E-12
(PID.TID 0000.0001)  cg2d: iter=   119 ; resid.=  5.69568218886970E-12
(PID.TID 0000.0001)  cg2d: iter=   120 ; resid.=  4.37699403711410E-12
(PID.TID 0000.0001)  cg2d: iter=   121 ; resid.=  3.31918349725342E-12
(PID.TID 0000.0001)  cg2d: iter=   122 ; resid.=  2.67791821921839E-12
(PID.TID 0000.0001)  cg2d: iter=   123 ; resid.=  2.09026045918315E-12
(PID.TID 0000.0001)  cg2d: iter=   124 ; resid.=  1.49508455104233E-12
(PID.TID 0000.0001)  cg2d: iter=   125 ; resid.=  1.07457490450454E-12
(PID.TID 0000.0001)  cg2d: iter=   126 ; resid.=  7.83976949781705E-13
(PID.TID 0000.0001)  cg2d: iter=   127 ; resid.=  5.67184547207853E-13
(PID.TID 0000.0001)  cg2d: iter=   128 ; resid.=  3.90723829732126E-13
(PID.TID 0000.0001)  cg2d: iter=   129 ; resid.=  2.83277011914085E-13
(PID.TID 0000.0001)  cg2d: iter=   130 ; resid.=  2.22286392583460E-13
(PID.TID 0000.0001)  cg2d: iter=   131 ; resid.=  1.73801262910374E-13
(PID.TID 0000.0001)  cg2d: iter=   132 ; resid.=  1.39622125010004E-13
(PID.TID 0000.0001)  cg2d: iter=   133 ; resid.=  1.03342674219483E-13
(PID.TID 0000.0001)  cg2d: iter=   134 ; resid.=  8.23653437816890E-14
DEBUG_STATS_RL:    cg2d_x (SOLVE_FOR_PRESSURE)  min= -1.70327902839973E+01
DEBUG_STATS_RL:    cg2d_x (SOLVE_FOR_PRESSURE)  max=  9.62242011743861E+00
DEBUG_STATS_RL:    cg2d_x (SOLVE_FOR_PRESSURE) mean= -1.77827123685491E+00
DEBUG_STATS_RL:    cg2d_x (SOLVE_FOR_PRESSURE) S.D.=  7.00474244914391E+00
(PID.TID 0000.0001)      cg2d_init_res =   3.89339552322840E-01
(PID.TID 0000.0001)      cg2d_iters(min,last) =      -1     134
(PID.TID 0000.0001)      cg2d_last_res =   8.23653437816890E-14
(PID.TID 0000.0001) // =======================================================
(PID.TID 0000.0001) // Begin MONITOR dynamic field statistics
(PID.TID 0000.0001) // =======================================================
(PID.TID 0000.0001) %MON time_tsnumber                =                    44
(PID.TID 0000.0001) %MON time_secondsf                =   3.8016000000000E+06
(PID.TID 0000.0001) %MON dynstat_eta_max              =   9.8087870718027E-01
(PID.TID 0000.0001) %MON dynstat_eta_min              =  -1.7362681227316E+00
(PID.TID 0000.0001) %MON dynstat_eta_mean             =  -3.3152483971579E-03
(PID.TID 0000.0001) %MON dynstat_eta_sd               =   6.3093704708981E-01
(PID.TID 0000.0001) %MON dynstat_eta_del2             =   2.2023415735839E-03
(PID.TID 0000.0001) %MON dynstat_uvel_max             =   1.6171894496331E-01
(PID.TID 0000.0001) %MON dynstat_uvel_min             =  -1.5066993546836E-01
(PID.TID 0000.0001) %MON dynstat_uvel_mean            =   1.0791058690047E-03
(PID.TID 0000.0001) %MON dynstat_uvel_sd              =   1.5435667874698E-02
(PID.TID 0000.0001) %MON dynstat_uvel_del2            =   9.1506583500818E-05
(PID.TID 0000.0001) %MON dynstat_vvel_max             =   1.1567462539220E-01
(PID.TID 0000.0001) %MON dynstat_vvel_min             =  -1.1183755933370E-01
(PID.TID 0000.0001) %MON dynstat_vvel_mean            =   2.9733609573468E-05
(PID.TID 0000.0001) %MON dynstat_vvel_sd              =   9.2392105052910E-03
(PID.TID 0000.0001) %MON dynstat_vvel_del2            =   7.9319411934602E-05
(PID.TID 0000.0001) %MON dynstat_wvel_max             =   1.0485780510897E-04
(PID.TID 0000.0001) %MON dynstat_wvel_min             =  -1.2978570107235E-04
(PID.TID 0000.0001) %MON dynstat_wvel_mean            =   1.0192595106255E-22
(PID.TID 0000.0001) %MON dynstat_wvel_sd              =   1.4261395677747E-05
(PID.TID 0000.0001) %MON dynstat_wvel_del2            =   1.4288573153997E-07
(PID.TID 0000.0001) %MON dynstat_theta_max            =   3.0285170392011E+01
(PID.TID 0000.0001) %MON dynstat_theta_min            =  -1.9942523072079E+00
(PID.TID 0000.0001) %MON dynstat_theta_mean           =   3.6321570238917E+00
(PID.TID 0000.0001) %MON dynstat_theta_sd             =   4.4200149044550E+00
(PID.TID 0000.0001) %MON dynstat_theta_del2           =   4.7328026896058E-03
(PID.TID 0000.0001) %MON dynstat_salt_max             =   3.7467067241308E+01
(PID.TID 0000.0001) %MON dynstat_salt_min             =   2.9840722095070E+01
(PID.TID 0000.0001) %MON dynstat_salt_mean            =   3.4727999169235E+01
(PID.TID 0000.0001) %MON dynstat_salt_sd              =   2.9636904343529E-01
(PID.TID 0000.0001) %MON dynstat_salt_del2            =   9.8531909612067E-04
(PID.TID 0000.0001) %MON dynstat_sst_max              =   3.0285170392011E+01
(PID.TID 0000.0001) %MON dynstat_sst_min              =  -1.9942523072079E+00
(PID.TID 0000.0001) %MON dynstat_sst_mean             =   1.8887314650449E+01
(PID.TID 0000.0001) %MON dynstat_sst_sd               =   9.0099964357750E+00
(PID.TID 0000.0001) %MON dynstat_sst_del2             =   2.7136719458979E-02
(PID.TID 0000.0001) %MON dynstat_sss_max              =   3.7440159760600E+01
(PID.TID 0000.0001) %MON dynstat_sss_min              =   2.9840722095070E+01
(PID.TID 0000.0001) %MON dynstat_sss_mean             =   3.4854288805098E+01
(PID.TID 0000.0001) %MON dynstat_sss_sd               =   9.7716564589337E-01
(PID.TID 0000.0001) %MON dynstat_sss_del2             =   7.8744328524365E-03
(PID.TID 0000.0001) %MON forcing_qnet_max             =   3.6116065877279E+02
(PID.TID 0000.0001) %MON forcing_qnet_min             =  -1.7331300760905E+02
(PID.TID 0000.0001) %MON forcing_qnet_mean            =  -1.4135069313750E+01
(PID.TID 0000.0001) %MON forcing_qnet_sd              =   8.1439639696185E+01
(PID.TID 0000.0001) %MON forcing_qnet_del2            =   9.5075858077314E-01
(PID.TID 0000.0001) %MON forcing_qsw_max              =   0.0000000000000E+00
(PID.TID 0000.0001) %MON forcing_qsw_min              =   0.0000000000000E+00
(PID.TID 0000.0001) %MON forcing_qsw_mean             =   0.0000000000000E+00
(PID.TID 0000.0001) %MON forcing_qsw_sd               =   0.0000000000000E+00
(PID.TID 0000.0001) %MON forcing_qsw_del2             =   0.0000000000000E+00
(PID.TID 0000.0001) %MON forcing_empmr_max            =   7.3379726472922E-05
(PID.TID 0000.0001) %MON forcing_empmr_min            =  -7.8385995531486E-05
(PID.TID 0000.0001) %MON forcing_empmr_mean           =   9.4204418538947E-07
(PID.TID 0000.0001) %MON forcing_empmr_sd             =   2.7984746342061E-05
(PID.TID 0000.0001) %MON forcing_empmr_del2           =   3.5513748337795E-07
(PID.TID 0000.0001) %MON forcing_fu_max               =   3.0186120867729E-01
(PID.TID 0000.0001) %MON forcing_fu_min               =  -2.1399418314298E-01
(PID.TID 0000.0001) %MON forcing_fu_mean              =   1.7522141185698E-02
(PID.TID 0000.0001) %MON forcing_fu_sd                =   9.2407469002415E-02
(PID.TID 0000.0001) %MON forcing_fu_del2              =   7.2980579013269E-04
(PID.TID 0000.0001) %MON forcing_fv_max               =   1.9736103514830E-01
(PID.TID 0000.0001) %MON forcing_fv_min               =  -1.9333545764287E-01
(PID.TID 0000.0001) %MON forcing_fv_mean              =  -7.0862031275300E-03
(PID.TID 0000.0001) %MON forcing_fv_sd                =   4.4825947766004E-02
(PID.TID 0000.0001) %MON forcing_fv_del2              =   5.2614803750806E-04
(PID.TID 0000.0001) %MON trAdv_CFL_u_max              =   5.0217076837577E-02
(PID.TID 0000.0001) %MON trAdv_CFL_v_max              =   2.7011524961817E-02
(PID.TID 0000.0001) %MON trAdv_CFL_w_max              =   3.3966504702781E-02
(PID.TID 0000.0001) %MON advcfl_uvel_max              =   4.9528565951812E-02
(PID.TID 0000.0001) %MON advcfl_vvel_max              =   2.2473724515756E-02
(PID.TID 0000.0001) %MON advcfl_wvel_max              =   3.3509732099046E-02
(PID.TID 0000.0001) %MON advcfl_W_hf_max              =   4.0211678518856E-02
(PID.TID 0000.0001) %MON pe_b_mean                    =   5.0940739872343E-04
(PID.TID 0000.0001) %MON ke_max                       =   1.4030070481982E-02
(PID.TID 0000.0001) %MON ke_mean                      =   1.4709768274808E-04
(PID.TID 0000.0001) %MON ke_vol                       =   1.3226782436723E+18
(PID.TID 0000.0001) %MON vort_r_min                   =  -4.8552020976001E-07
(PID.TID 0000.0001) %MON vort_r_max                   =   4.2852214117217E-07
(PID.TID 0000.0001) %MON vort_a_mean                  =  -2.5274806722513E-05
(PID.TID 0000.0001) %MON vort_a_sd                    =   7.3604476417770E-05
(PID.TID 0000.0001) %MON vort_p_mean                  =  -3.1845654949066E-05
(PID.TID 0000.0001) %MON vort_p_sd                    =   1.3162405815620E-04
(PID.TID 0000.0001) %MON surfExpan_theta_mean         =   2.4556775601433E-07
(PID.TID 0000.0001) %MON surfExpan_salt_mean          =   5.1671996169731E-08
(PID.TID 0000.0001) // =======================================================
(PID.TID 0000.0001) // End MONITOR dynamic field statistics
(PID.TID 0000.0001) // =======================================================
 EXTERNAL_FIELDS_LOAD,        44 : iP,iLd,i0,i1=    1    2    1    2 ; Wght=  0.0333333333  0.9666666667
 EXTERNAL_FIELDS_LOAD: (fu0,1),fu,fv= -3.5633E-02 -1.4435E-02 -1.5141E-02 -1.8956E-02
 EXTERNAL_FIELDS_LOAD: SST,SSS,Q,E-P= -4.8218E-01  3.4431E+01  2.4132E+02  8.4859E-06
DEBUG_STATS_RL:          Uvel (THERMODYNAMICS)  min= -1.50669935468359E-01
DEBUG_STATS_RL:          Uvel (THERMODYNAMICS)  max=  1.61718944963309E-01
DEBUG_STATS_RL:          Uvel (THERMODYNAMICS) mean=  3.76163549345512E-03
DEBUG_STATS_RL:          Uvel (THERMODYNAMICS) S.D.=  2.46987891518142E-02
DEBUG_STATS_RL:          Vvel (THERMODYNAMICS)  min= -1.11837559333699E-01
DEBUG_STATS_RL:          Vvel (THERMODYNAMICS)  max=  1.15674625392200E-01
DEBUG_STATS_RL:          Vvel (THERMODYNAMICS) mean=  8.05314875380208E-04
DEBUG_STATS_RL:          Vvel (THERMODYNAMICS) S.D.=  1.43885802351598E-02
DEBUG_STATS_RL:          Wvel (THERMODYNAMICS)  min= -1.29785701072346E-04
DEBUG_STATS_RL:          Wvel (THERMODYNAMICS)  max=  1.04857805108965E-04
DEBUG_STATS_RL:          Wvel (THERMODYNAMICS) mean= -1.82649323670809E-07
DEBUG_STATS_RL:          Wvel (THERMODYNAMICS) S.D.=  1.24197118347934E-05
DEBUG_STATS_RL:         Theta (THERMODYNAMICS)  min= -1.99295828946710E+00
DEBUG_STATS_RL:         Theta (THERMODYNAMICS)  max=  3.03047428057224E+01
DEBUG_STATS_RL:         Theta (THERMODYNAMICS) mean=  3.22647012870040E+00
DEBUG_STATS_RL:         Theta (THERMODYNAMICS) S.D.=  5.86766398364205E+00
DEBUG_STATS_RL:          Salt (THERMODYNAMICS)  min=  9.99999999999998E-03
DEBUG_STATS_RL:          Salt (THERMODYNAMICS)  max=  3.74674582878425E+01
DEBUG_STATS_RL:          Salt (THERMODYNAMICS) mean=  1.88548935457176E+01
DEBUG_STATS_RL:          Salt (THERMODYNAMICS) S.D.=  1.73004128171486E+01
DEBUG_STATS_RL:         GtNm1 (THERMODYNAMICS)  min= -4.32240621880319E-06
DEBUG_STATS_RL:         GtNm1 (THERMODYNAMICS)  max=  2.73537289030708E-06
DEBUG_STATS_RL:         GtNm1 (THERMODYNAMICS) mean=  1.05204303943361E-08
DEBUG_STATS_RL:         GtNm1 (THERMODYNAMICS) S.D.=  1.99364753459958E-07
DEBUG_STATS_RL:         GsNm1 (THERMODYNAMICS)  min= -4.25481500127234E-07
DEBUG_STATS_RL:         GsNm1 (THERMODYNAMICS)  max=  3.00462473349708E-07
DEBUG_STATS_RL:         GsNm1 (THERMODYNAMICS) mean=  2.15882703724835E-10
DEBUG_STATS_RL:         GsNm1 (THERMODYNAMICS) S.D.=  1.83444371664939E-08
DEBUG_STATS_RL:                EtaN (DYNAMICS)  min= -1.73626812273164E+00
DEBUG_STATS_RL:                EtaN (DYNAMICS)  max=  9.80878707180269E-01
DEBUG_STATS_RL:                EtaN (DYNAMICS) mean= -1.81271277966861E-01
DEBUG_STATS_RL:                EtaN (DYNAMICS) S.D.=  7.14041024377570E-01
DEBUG_STATS_RL:                Uvel (DYNAMICS)  min= -1.50669935468359E-01
DEBUG_STATS_RL:                Uvel (DYNAMICS)  max=  1.61718944963309E-01
DEBUG_STATS_RL:                Uvel (DYNAMICS) mean=  3.76163549345512E-03
DEBUG_STATS_RL:                Uvel (DYNAMICS) S.D.=  2.46987891518142E-02
DEBUG_STATS_RL:                Vvel (DYNAMICS)  min= -1.11837559333699E-01
DEBUG_STATS_RL:                Vvel (DYNAMICS)  max=  1.15674625392200E-01
DEBUG_STATS_RL:                Vvel (DYNAMICS) mean=  8.05314875380208E-04
DEBUG_STATS_RL:                Vvel (DYNAMICS) S.D.=  1.43885802351598E-02
DEBUG_STATS_RL:                Wvel (DYNAMICS)  min= -1.29785701072346E-04
DEBUG_STATS_RL:                Wvel (DYNAMICS)  max=  1.04857805108965E-04
DEBUG_STATS_RL:                Wvel (DYNAMICS) mean= -1.82649323670809E-07
DEBUG_STATS_RL:                Wvel (DYNAMICS) S.D.=  1.24197118347934E-05
DEBUG_STATS_RL:               Theta (DYNAMICS)  min= -1.99295828946710E+00
DEBUG_STATS_RL:               Theta (DYNAMICS)  max=  3.03047428057224E+01
DEBUG_STATS_RL:               Theta (DYNAMICS) mean=  3.22647012870040E+00
DEBUG_STATS_RL:               Theta (DYNAMICS) S.D.=  5.86766398364205E+00
DEBUG_STATS_RL:                Salt (DYNAMICS)  min=  9.99999999999998E-03
DEBUG_STATS_RL:                Salt (DYNAMICS)  max=  3.74674582878425E+01
DEBUG_STATS_RL:                Salt (DYNAMICS) mean=  1.88548935457176E+01
DEBUG_STATS_RL:                Salt (DYNAMICS) S.D.=  1.73004128171486E+01
DEBUG_STATS_RL:                  Gu (DYNAMICS)  min= -1.49597689553014E-01
DEBUG_STATS_RL:                  Gu (DYNAMICS)  max=  1.66153576644511E-01
DEBUG_STATS_RL:                  Gu (DYNAMICS) mean=  3.69787465274294E-03
DEBUG_STATS_RL:                  Gu (DYNAMICS) S.D.=  2.50684794624579E-02
DEBUG_STATS_RL:                  Gv (DYNAMICS)  min= -1.07652334805726E-01
DEBUG_STATS_RL:                  Gv (DYNAMICS)  max=  1.20225432983521E-01
DEBUG_STATS_RL:                  Gv (DYNAMICS) mean=  3.24259143031711E-03
DEBUG_STATS_RL:                  Gv (DYNAMICS) S.D.=  1.51357946218939E-02
DEBUG_STATS_RL:               GuNm1 (DYNAMICS)  min= -9.07357118251987E-06
DEBUG_STATS_RL:               GuNm1 (DYNAMICS)  max=  8.59965481507187E-06
DEBUG_STATS_RL:               GuNm1 (DYNAMICS) mean= -1.22165732615482E-08
DEBUG_STATS_RL:               GuNm1 (DYNAMICS) S.D.=  1.17012792047193E-06
DEBUG_STATS_RL:               GvNm1 (DYNAMICS)  min= -9.73089181368108E-06
DEBUG_STATS_RL:               GvNm1 (DYNAMICS)  max=  1.63595277621984E-05
DEBUG_STATS_RL:               GvNm1 (DYNAMICS) mean=  7.45835532826769E-07
DEBUG_STATS_RL:               GvNm1 (DYNAMICS) S.D.=  2.59020411379536E-06
DEBUG_STATS_RL:               GtNm1 (DYNAMICS)  min= -4.32240621880319E-06
DEBUG_STATS_RL:               GtNm1 (DYNAMICS)  max=  2.73537289030708E-06
DEBUG_STATS_RL:               GtNm1 (DYNAMICS) mean=  1.05204303943361E-08
DEBUG_STATS_RL:               GtNm1 (DYNAMICS) S.D.=  1.99364753459958E-07
DEBUG_STATS_RL:               GsNm1 (DYNAMICS)  min= -4.25481500127234E-07
DEBUG_STATS_RL:               GsNm1 (DYNAMICS)  max=  3.00462473349708E-07
DEBUG_STATS_RL:               GsNm1 (DYNAMICS) mean=  2.15882703724835E-10
DEBUG_STATS_RL:               GsNm1 (DYNAMICS) S.D.=  1.83444371664939E-08
DEBUG_STATS_RL:    cg2d_b (SOLVE_FOR_PRESSURE)  min= -2.11465472316077E+04
DEBUG_STATS_RL:    cg2d_b (SOLVE_FOR_PRESSURE)  max=  2.02553536998840E+04
DEBUG_STATS_RL:    cg2d_b (SOLVE_FOR_PRESSURE) mean=  3.25284994042178E+00
DEBUG_STATS_RL:    cg2d_b (SOLVE_FOR_PRESSURE) S.D.=  3.64506430371548E+03
 cg2d: Sum(rhs),rhsMax =   3.56102938678286E-01  1.38896184048127E+00
(PID.TID 0000.0001)  cg2d: iter=     1 ; resid.=  1.31013731829642E-01
(PID.TID 0000.0001)  cg2d: iter=     2 ; resid.=  9.24926059228600E-02
(PID.TID 0000.0001)  cg2d: iter=     3 ; resid.=  8.89183388012232E-02
(PID.TID 0000.0001)  cg2d: iter=     4 ; resid.=  7.24450909137424E-02
(PID.TID 0000.0001)  cg2d: iter=     5 ; resid.=  5.76473640803075E-02
(PID.TID 0000.0001)  cg2d: iter=     6 ; resid.=  4.66596802746207E-02
(PID.TID 0000.0001)  cg2d: iter=     7 ; resid.=  3.77813533625872E-02
(PID.TID 0000.0001)  cg2d: iter=     8 ; resid.=  3.17116192406458E-02
(PID.TID 0000.0001)  cg2d: iter=     9 ; resid.=  2.64286420807368E-02
(PID.TID 0000.0001)  cg2d: iter=    10 ; resid.=  2.10799109175733E-02
(PID.TID 0000.0001)  cg2d: iter=    11 ; resid.=  1.81258436079258E-02
(PID.TID 0000.0001)  cg2d: iter=    12 ; resid.=  1.63391456516674E-02
(PID.TID 0000.0001)  cg2d: iter=    13 ; resid.=  1.34527412903095E-02
(PID.TID 0000.0001)  cg2d: iter=    14 ; resid.=  1.06720571797105E-02
(PID.TID 0000.0001)  cg2d: iter=    15 ; resid.=  8.35778214421055E-03
(PID.TID 0000.0001)  cg2d: iter=    16 ; resid.=  7.10058878953996E-03
(PID.TID 0000.0001)  cg2d: iter=    17 ; resid.=  6.28159976076093E-03
(PID.TID 0000.0001)  cg2d: iter=    18 ; resid.=  5.10947517709370E-03
(PID.TID 0000.0001)  cg2d: iter=    19 ; resid.=  4.36208835702195E-03
(PID.TID 0000.0001)  cg2d: iter=    20 ; resid.=  3.59627829909371E-03
(PID.TID 0000.0001)  cg2d: iter=    21 ; resid.=  3.10843179451941E-03
(PID.TID 0000.0001)  cg2d: iter=    22 ; resid.=  2.77400874466054E-03
(PID.TID 0000.0001)  cg2d: iter=    23 ; resid.=  2.35839017910980E-03
(PID.TID 0000.0001)  cg2d: iter=    24 ; resid.=  1.95862728981611E-03
(PID.TID 0000.0001)  cg2d: iter=    25 ; resid.=  1.56905222908534E-03
(PID.TID 0000.0001)  cg2d: iter=    26 ; resid.=  1.28209620292733E-03
(PID.TID 0000.0001)  cg2d: iter=    27 ; resid.=  1.16273705397137E-03
(PID.TID 0000.0001)  cg2d: iter=    28 ; resid.=  1.01646195365012E-03
(PID.TID 0000.0001)  cg2d: iter=    29 ; resid.=  8.86235284316819E-04
(PID.TID 0000.0001)  cg2d: iter=    30 ; resid.=  7.63708139937544E-04
(PID.TID 0000.0001)  cg2d: iter=    31 ; resid.=  6.67309945792378E-04
(PID.TID 0000.0001)  cg2d: iter=    32 ; resid.=  5.06970879744352E-04
(PID.TID 0000.0001)  cg2d: iter=    33 ; resid.=  4.00176908236639E-04
(PID.TID 0000.0001)  cg2d: iter=    34 ; resid.=  3.39466618169848E-04
(PID.TID 0000.0001)  cg2d: iter=    35 ; resid.=  2.84478470040138E-04
(PID.TID 0000.0001)  cg2d: iter=    36 ; resid.=  2.40380319210131E-04
(PID.TID 0000.0001)  cg2d: iter=    37 ; resid.=  1.93723049098099E-04
(PID.TID 0000.0001)  cg2d: iter=    38 ; resid.=  1.53331320370826E-04
(PID.TID 0000.0001)  cg2d: iter=    39 ; resid.=  1.24075625407376E-04
(PID.TID 0000.0001)  cg2d: iter=    40 ; resid.=  1.03959368212795E-04
(PID.TID 0000.0001)  cg2d: iter=    41 ; resid.=  8.85872248302376E-05
(PID.TID 0000.0001)  cg2d: iter=    42 ; resid.=  7.74480567652258E-05
(PID.TID 0000.0001)  cg2d: iter=    43 ; resid.=  7.11793581093155E-05
(PID.TID 0000.0001)  cg2d: iter=    44 ; resid.=  6.36221675995011E-05
(PID.TID 0000.0001)  cg2d: iter=    45 ; resid.=  5.18305524995849E-05
(PID.TID 0000.0001)  cg2d: iter=    46 ; resid.=  3.98626954966961E-05
(PID.TID 0000.0001)  cg2d: iter=    47 ; resid.=  3.29066834547768E-05
(PID.TID 0000.0001)  cg2d: iter=    48 ; resid.=  2.74445654087408E-05
(PID.TID 0000.0001)  cg2d: iter=    49 ; resid.=  2.10762440077545E-05
(PID.TID 0000.0001)  cg2d: iter=    50 ; resid.=  1.62021945704883E-05
(PID.TID 0000.0001)  cg2d: iter=    51 ; resid.=  1.20878633997064E-05
(PID.TID 0000.0001)  cg2d: iter=    52 ; resid.=  1.03005378484049E-05
(PID.TID 0000.0001)  cg2d: iter=    53 ; resid.=  8.54952655093714E-06
(PID.TID 0000.0001)  cg2d: iter=    54 ; resid.=  7.48052154775591E-06
(PID.TID 0000.0001)  cg2d: iter=    55 ; resid.=  6.56882196654314E-06
(PID.TID 0000.0001)  cg2d: iter=    56 ; resid.=  5.83479684828497E-06
(PID.TID 0000.0001)  cg2d: iter=    57 ; resid.=  5.18947351262655E-06
(PID.TID 0000.0001)  cg2d: iter=    58 ; resid.=  4.40412506158187E-06
(PID.TID 0000.0001)  cg2d: iter=    59 ; resid.=  3.63596132243164E-06
(PID.TID 0000.0001)  cg2d: iter=    60 ; resid.=  2.73296896653404E-06
(PID.TID 0000.0001)  cg2d: iter=    61 ; resid.=  2.13879973184159E-06
(PID.TID 0000.0001)  cg2d: iter=    62 ; resid.=  1.75286585373132E-06
(PID.TID 0000.0001)  cg2d: iter=    63 ; resid.=  1.37752154749919E-06
(PID.TID 0000.0001)  cg2d: iter=    64 ; resid.=  1.09648013507267E-06
(PID.TID 0000.0001)  cg2d: iter=    65 ; resid.=  8.36867163074679E-07
(PID.TID 0000.0001)  cg2d: iter=    66 ; resid.=  6.61932316659950E-07
(PID.TID 0000.0001)  cg2d: iter=    67 ; resid.=  5.32016330491977E-07
(PID.TID 0000.0001)  cg2d: iter=    68 ; resid.=  4.66166782835638E-07
(PID.TID 0000.0001)  cg2d: iter=    69 ; resid.=  3.65055659382410E-07
(PID.TID 0000.0001)  cg2d: iter=    70 ; resid.=  2.66666443823622E-07
(PID.TID 0000.0001)  cg2d: iter=    71 ; resid.=  2.25284669262094E-07
(PID.TID 0000.0001)  cg2d: iter=    72 ; resid.=  1.87807427336436E-07
(PID.TID 0000.0001)  cg2d: iter=    73 ; resid.=  1.63391785053996E-07
(PID.TID 0000.0001)  cg2d: iter=    74 ; resid.=  1.41500967635379E-07
(PID.TID 0000.0001)  cg2d: iter=    75 ; resid.=  1.20772878473890E-07
(PID.TID 0000.0001)  cg2d: iter=    76 ; resid.=  9.81565504684752E-08
(PID.TID 0000.0001)  cg2d: iter=    77 ; resid.=  8.81361243036156E-08
(PID.TID 0000.0001)  cg2d: iter=    78 ; resid.=  7.56616529534913E-08
(PID.TID 0000.0001)  cg2d: iter=    79 ; resid.=  6.85275604459805E-08
(PID.TID 0000.0001)  cg2d: iter=    80 ; resid.=  6.00042054265371E-08
(PID.TID 0000.0001)  cg2d: iter=    81 ; resid.=  4.89142213665204E-08
(PID.TID 0000.0001)  cg2d: iter=    82 ; resid.=  4.05781929363922E-08
(PID.TID 0000.0001)  cg2d: iter=    83 ; resid.=  3.07979675507462E-08
(PID.TID 0000.0001)  cg2d: iter=    84 ; resid.=  2.26791589271634E-08
(PID.TID 0000.0001)  cg2d: iter=    85 ; resid.=  1.63896193612400E-08
(PID.TID 0000.0001)  cg2d: iter=    86 ; resid.=  1.14727276087705E-08
(PID.TID 0000.0001)  cg2d: iter=    87 ; resid.=  7.69015614662840E-09
(PID.TID 0000.0001)  cg2d: iter=    88 ; resid.=  5.35259811658182E-09
(PID.TID 0000.0001)  cg2d: iter=    89 ; resid.=  4.53120196799451E-09
(PID.TID 0000.0001)  cg2d: iter=    90 ; resid.=  3.65607512397512E-09
(PID.TID 0000.0001)  cg2d: iter=    91 ; resid.=  2.78368539235751E-09
(PID.TID 0000.0001)  cg2d: iter=    92 ; resid.=  2.15585893380116E-09
(PID.TID 0000.0001)  cg2d: iter=    93 ; resid.=  1.57288544784696E-09
(PID.TID 0000.0001)  cg2d: iter=    94 ; resid.=  1.11094432189008E-09
(PID.TID 0000.0001)  cg2d: iter=    95 ; resid.=  8.92052871715343E-10
(PID.TID 0000.0001)  cg2d: iter=    96 ; resid.=  7.24473970053742E-10
(PID.TID 0000.0001)  cg2d: iter=    97 ; resid.=  5.52428900119026E-10
(PID.TID 0000.0001)  cg2d: iter=    98 ; resid.=  4.01378208864838E-10
(PID.TID 0000.0001)  cg2d: iter=    99 ; resid.=  2.96139989104981E-10
(PID.TID 0000.0001)  cg2d: iter=   100 ; resid.=  2.71119248063994E-10
(PID.TID 0000.0001)  cg2d: iter=   101 ; resid.=  2.49240878309244E-10
(PID.TID 0000.0001)  cg2d: iter=   102 ; resid.=  2.00367296405130E-10
(PID.TID 0000.0001)  cg2d: iter=   103 ; resid.=  1.45787731992884E-10
(PID.TID 0000.0001)  cg2d: iter=   104 ; resid.=  1.18795480437410E-10
(PID.TID 0000.0001)  cg2d: iter=   105 ; resid.=  9.15643129256106E-11
(PID.TID 0000.0001)  cg2d: iter=   106 ; resid.=  7.24991227536431E-11
(PID.TID 0000.0001)  cg2d: iter=   107 ; resid.=  5.87539303499360E-11
(PID.TID 0000.0001)  cg2d: iter=   108 ; resid.=  4.97752999310837E-11
(PID.TID 0000.0001)  cg2d: iter=   109 ; resid.=  4.47778842454850E-11
(PID.TID 0000.0001)  cg2d: iter=   110 ; resid.=  3.64639267885011E-11
(PID.TID 0000.0001)  cg2d: iter=   111 ; resid.=  2.93218390819355E-11
(PID.TID 0000.0001)  cg2d: iter=   112 ; resid.=  2.45449162406893E-11
(PID.TID 0000.0001)  cg2d: iter=   113 ; resid.=  1.92856395092738E-11
(PID.TID 0000.0001)  cg2d: iter=   114 ; resid.=  1.48767111482591E-11
(PID.TID 0000.0001)  cg2d: iter=   115 ; resid.=  1.12302451980211E-11
(PID.TID 0000.0001)  cg2d: iter=   116 ; resid.=  7.54813477272012E-12
(PID.TID 0000.0001)  cg2d: iter=   117 ; resid.=  5.70704918611001E-12
(PID.TID 0000.0001)  cg2d: iter=   118 ; resid.=  4.04566928094373E-12
(PID.TID 0000.0001)  cg2d: iter=   119 ; resid.=  3.09982240581557E-12
(PID.TID 0000.0001)  cg2d: iter=   120 ; resid.=  2.32163376009731E-12
(PID.TID 0000.0001)  cg2d: iter=   121 ; resid.=  1.68894247996673E-12
(PID.TID 0000.0001)  cg2d: iter=   122 ; resid.=  1.36297528312097E-12
(PID.TID 0000.0001)  cg2d: iter=   123 ; resid.=  1.14709921818001E-12
(PID.TID 0000.0001)  cg2d: iter=   124 ; resid.=  9.25535651613828E-13
(PID.TID 0000.0001)  cg2d: iter=   125 ; resid.=  7.50197789964708E-13
(PID.TID 0000.0001)  cg2d: iter=   126 ; resid.=  5.93993442194652E-13
(PID.TID 0000.0001)  cg2d: iter=   127 ; resid.=  4.46544663837210E-13
(PID.TID 0000.0001)  cg2d: iter=   128 ; resid.=  3.09193843791108E-13
(PID.TID 0000.0001)  cg2d: iter=   129 ; resid.=  2.26570275401956E-13
(PID.TID 0000.0001)  cg2d: iter=   130 ; resid.=  1.72539103227357E-13
(PID.TID 0000.0001)  cg2d: iter=   131 ; resid.=  1.24356648473842E-13
(PID.TID 0000.0001)  cg2d: iter=   132 ; resid.=  9.21129416495057E-14
DEBUG_STATS_RL:    cg2d_x (SOLVE_FOR_PRESSURE)  min= -1.70651187939463E+01
DEBUG_STATS_RL:    cg2d_x (SOLVE_FOR_PRESSURE)  max=  9.61933401928070E+00
DEBUG_STATS_RL:    cg2d_x (SOLVE_FOR_PRESSURE) mean= -1.78504366926856E+00
DEBUG_STATS_RL:    cg2d_x (SOLVE_FOR_PRESSURE) S.D.=  7.00431062451516E+00
(PID.TID 0000.0001)      cg2d_init_res =   3.85369857959884E-01
(PID.TID 0000.0001)      cg2d_iters(min,last) =      -1     132
(PID.TID 0000.0001)      cg2d_last_res =   9.21129416495057E-14
(PID.TID 0000.0001) // =======================================================
(PID.TID 0000.0001) // Begin MONITOR dynamic field statistics
(PID.TID 0000.0001) // =======================================================
(PID.TID 0000.0001) %MON time_tsnumber                =                    45
(PID.TID 0000.0001) %MON time_secondsf                =   3.8880000000000E+06
(PID.TID 0000.0001) %MON dynstat_eta_max              =   9.8056412021212E-01
(PID.TID 0000.0001) %MON dynstat_eta_min              =  -1.7395635875588E+00
(PID.TID 0000.0001) %MON dynstat_eta_mean             =  -3.3939455727524E-03
(PID.TID 0000.0001) %MON dynstat_eta_sd               =   6.2979545417753E-01
(PID.TID 0000.0001) %MON dynstat_eta_del2             =   2.2122892639563E-03
(PID.TID 0000.0001) %MON dynstat_uvel_max             =   1.6456287857828E-01
(PID.TID 0000.0001) %MON dynstat_uvel_min             =  -1.4940806886734E-01
(PID.TID 0000.0001) %MON dynstat_uvel_mean            =   1.0510323993506E-03
(PID.TID 0000.0001) %MON dynstat_uvel_sd              =   1.5454771880223E-02
(PID.TID 0000.0001) %MON dynstat_uvel_del2            =   9.1905995127417E-05
(PID.TID 0000.0001) %MON dynstat_vvel_max             =   1.1878551290516E-01
(PID.TID 0000.0001) %MON dynstat_vvel_min             =  -1.1043128507092E-01
(PID.TID 0000.0001) %MON dynstat_vvel_mean            =   3.3123493015506E-05
(PID.TID 0000.0001) %MON dynstat_vvel_sd              =   9.1829683297212E-03
(PID.TID 0000.0001) %MON dynstat_vvel_del2            =   7.9038404903113E-05
(PID.TID 0000.0001) %MON dynstat_wvel_max             =   1.0080433493932E-04
(PID.TID 0000.0001) %MON dynstat_wvel_min             =  -1.2300159167478E-04
(PID.TID 0000.0001) %MON dynstat_wvel_mean            =   3.4313636633378E-22
(PID.TID 0000.0001) %MON dynstat_wvel_sd              =   1.4124204382592E-05
(PID.TID 0000.0001) %MON dynstat_wvel_del2            =   1.4138124871588E-07
(PID.TID 0000.0001) %MON dynstat_theta_max            =   3.0304742805722E+01
(PID.TID 0000.0001) %MON dynstat_theta_min            =  -1.9929582894671E+00
(PID.TID 0000.0001) %MON dynstat_theta_mean           =   3.6322311512831E+00
(PID.TID 0000.0001) %MON dynstat_theta_sd             =   4.4202442829338E+00
(PID.TID 0000.0001) %MON dynstat_theta_del2           =   4.7357986608694E-03
(PID.TID 0000.0001) %MON dynstat_salt_max             =   3.7467458287843E+01
(PID.TID 0000.0001) %MON dynstat_salt_min             =   2.9843276587444E+01
(PID.TID 0000.0001) %MON dynstat_salt_mean            =   3.4727998740816E+01
(PID.TID 0000.0001) %MON dynstat_salt_sd              =   2.9637409137539E-01
(PID.TID 0000.0001) %MON dynstat_salt_del2            =   9.8549432064810E-04
(PID.TID 0000.0001) %MON dynstat_sst_max              =   3.0304742805722E+01
(PID.TID 0000.0001) %MON dynstat_sst_min              =  -1.9929582894671E+00
(PID.TID 0000.0001) %MON dynstat_sst_mean             =   1.8897116039216E+01
(PID.TID 0000.0001) %MON dynstat_sst_sd               =   9.0103582752383E+00
(PID.TID 0000.0001) %MON dynstat_sst_del2             =   2.7193418731272E-02
(PID.TID 0000.0001) %MON dynstat_sss_max              =   3.7441381781591E+01
(PID.TID 0000.0001) %MON dynstat_sss_min              =   2.9843276587444E+01
(PID.TID 0000.0001) %MON dynstat_sss_mean             =   3.4854270530225E+01
(PID.TID 0000.0001) %MON dynstat_sss_sd               =   9.7728428476489E-01
(PID.TID 0000.0001) %MON dynstat_sss_del2             =   7.8803997925569E-03
(PID.TID 0000.0001) %MON forcing_qnet_max             =   3.5980644938151E+02
(PID.TID 0000.0001) %MON forcing_qnet_min             =  -1.7307348836263E+02
(PID.TID 0000.0001) %MON forcing_qnet_mean            =  -1.4050160146347E+01
(PID.TID 0000.0001) %MON forcing_qnet_sd              =   8.0515925311569E+01
(PID.TID 0000.0001) %MON forcing_qnet_del2            =   9.4993377104494E-01
(PID.TID 0000.0001) %MON forcing_qsw_max              =   0.0000000000000E+00
(PID.TID 0000.0001) %MON forcing_qsw_min              =   0.0000000000000E+00
(PID.TID 0000.0001) %MON forcing_qsw_mean             =   0.0000000000000E+00
(PID.TID 0000.0001) %MON forcing_qsw_sd               =   0.0000000000000E+00
(PID.TID 0000.0001) %MON forcing_qsw_del2             =   0.0000000000000E+00
(PID.TID 0000.0001) %MON forcing_empmr_max            =   7.3065636740921E-05
(PID.TID 0000.0001) %MON forcing_empmr_min            =  -7.8465639793042E-05
(PID.TID 0000.0001) %MON forcing_empmr_mean           =   9.4272658264943E-07
(PID.TID 0000.0001) %MON forcing_empmr_sd             =   2.7982248259518E-05
(PID.TID 0000.0001) %MON forcing_empmr_del2           =   3.5557407608614E-07
(PID.TID 0000.0001) %MON forcing_fu_max               =   3.0324836671352E-01
(PID.TID 0000.0001) %MON forcing_fu_min               =  -2.1682592133681E-01
(PID.TID 0000.0001) %MON forcing_fu_mean              =   1.7576441401167E-02
(PID.TID 0000.0001) %MON forcing_fu_sd                =   9.2702887616547E-02
(PID.TID 0000.0001) %MON forcing_fu_del2              =   7.3829863471251E-04
(PID.TID 0000.0001) %MON forcing_fv_max               =   1.9947300006946E-01
(PID.TID 0000.0001) %MON forcing_fv_min               =  -1.9650735656420E-01
(PID.TID 0000.0001) %MON forcing_fv_mean              =  -7.1514640342452E-03
(PID.TID 0000.0001) %MON forcing_fv_sd                =   4.4931010890769E-02
(PID.TID 0000.0001) %MON forcing_fv_del2              =   5.3367284187280E-04
(PID.TID 0000.0001) %MON trAdv_CFL_u_max              =   4.9538625557791E-02
(PID.TID 0000.0001) %MON trAdv_CFL_v_max              =   2.7793719309697E-02
(PID.TID 0000.0001) %MON trAdv_CFL_w_max              =   3.2802263697026E-02
(PID.TID 0000.0001) %MON advcfl_uvel_max              =   4.8327407697601E-02
(PID.TID 0000.0001) %MON advcfl_vvel_max              =   2.3078120066887E-02
(PID.TID 0000.0001) %MON advcfl_wvel_max              =   3.4363672535086E-02
(PID.TID 0000.0001) %MON advcfl_W_hf_max              =   4.1236407042104E-02
(PID.TID 0000.0001) %MON pe_b_mean                    =   5.0756638909347E-04
(PID.TID 0000.0001) %MON ke_max                       =   1.4038227372414E-02
(PID.TID 0000.0001) %MON ke_mean                      =   1.4687356344837E-04
(PID.TID 0000.0001) %MON ke_vol                       =   1.3226782436723E+18
(PID.TID 0000.0001) %MON vort_r_min                   =  -4.9089739699982E-07
(PID.TID 0000.0001) %MON vort_r_max                   =   4.2315597944427E-07
(PID.TID 0000.0001) %MON vort_a_mean                  =  -2.5274806724931E-05
(PID.TID 0000.0001) %MON vort_a_sd                    =   7.3604468562289E-05
(PID.TID 0000.0001) %MON vort_p_mean                  =  -3.1845654952113E-05
(PID.TID 0000.0001) %MON vort_p_sd                    =   1.3162401804460E-04
(PID.TID 0000.0001) %MON surfExpan_theta_mean         =   2.1315753013662E-07
(PID.TID 0000.0001) %MON surfExpan_salt_mean          =   6.9224763171895E-08
(PID.TID 0000.0001) // =======================================================
(PID.TID 0000.0001) // End MONITOR dynamic field statistics
(PID.TID 0000.0001) // =======================================================
 EXTERNAL_FIELDS_LOAD,        45 : iP,iLd,i0,i1=    1    2    2    3 ; Wght=  1.0000000000  0.0000000000
 EXTERNAL_FIELDS_LOAD, it=        45 : Reading new data, i0,i1=    2    3 (prev=    1    2 )
(PID.TID 0000.0001)  MDS_READ_FIELD: opening global file: trenberth_taux.bin
(PID.TID 0000.0001)  MDS_READ_FIELD: opening global file: trenberth_taux.bin
(PID.TID 0000.0001)  MDS_READ_FIELD: opening global file: trenberth_tauy.bin
(PID.TID 0000.0001)  MDS_READ_FIELD: opening global file: trenberth_tauy.bin
(PID.TID 0000.0001)  MDS_READ_FIELD: opening global file: ncep_qnet.bin
(PID.TID 0000.0001)  MDS_READ_FIELD: opening global file: ncep_qnet.bin
(PID.TID 0000.0001)  MDS_READ_FIELD: opening global file: ncep_emp.bin
(PID.TID 0000.0001)  MDS_READ_FIELD: opening global file: ncep_emp.bin
(PID.TID 0000.0001)  MDS_READ_FIELD: opening global file: lev_sst.bin
(PID.TID 0000.0001)  MDS_READ_FIELD: opening global file: lev_sst.bin
(PID.TID 0000.0001)  MDS_READ_FIELD: opening global file: lev_sss.bin
(PID.TID 0000.0001)  MDS_READ_FIELD: opening global file: lev_sss.bin
 EXTERNAL_FIELDS_LOAD: (fu0,1),fu,fv= -1.4435E-02 -2.7199E-02 -1.4435E-02 -1.7636E-02
 EXTERNAL_FIELDS_LOAD: SST,SSS,Q,E-P= -5.3186E-01  3.4421E+01  2.4048E+02  8.3772E-06
DEBUG_STATS_RL:          Uvel (THERMODYNAMICS)  min= -1.49408068867340E-01
DEBUG_STATS_RL:          Uvel (THERMODYNAMICS)  max=  1.64562878578278E-01
DEBUG_STATS_RL:          Uvel (THERMODYNAMICS) mean=  3.87813507247684E-03
DEBUG_STATS_RL:          Uvel (THERMODYNAMICS) S.D.=  2.46948307680174E-02
DEBUG_STATS_RL:          Vvel (THERMODYNAMICS)  min= -1.10431285070919E-01
DEBUG_STATS_RL:          Vvel (THERMODYNAMICS)  max=  1.18785512905161E-01
DEBUG_STATS_RL:          Vvel (THERMODYNAMICS) mean=  9.89890021160343E-04
DEBUG_STATS_RL:          Vvel (THERMODYNAMICS) S.D.=  1.44087354042891E-02
DEBUG_STATS_RL:          Wvel (THERMODYNAMICS)  min= -1.23001591674780E-04
DEBUG_STATS_RL:          Wvel (THERMODYNAMICS)  max=  1.00804334939323E-04
DEBUG_STATS_RL:          Wvel (THERMODYNAMICS) mean= -1.36780449036862E-07
DEBUG_STATS_RL:          Wvel (THERMODYNAMICS) S.D.=  1.23388018644563E-05
DEBUG_STATS_RL:         Theta (THERMODYNAMICS)  min= -1.99167262991834E+00
DEBUG_STATS_RL:         Theta (THERMODYNAMICS)  max=  3.03228907810712E+01
DEBUG_STATS_RL:         Theta (THERMODYNAMICS) mean=  3.22688728307464E+00
DEBUG_STATS_RL:         Theta (THERMODYNAMICS) S.D.=  5.86847750285944E+00
DEBUG_STATS_RL:          Salt (THERMODYNAMICS)  min=  9.99999999999998E-03
DEBUG_STATS_RL:          Salt (THERMODYNAMICS)  max=  3.74679187923209E+01
DEBUG_STATS_RL:          Salt (THERMODYNAMICS) mean=  1.88549057708364E+01
DEBUG_STATS_RL:          Salt (THERMODYNAMICS) S.D.=  1.73004244078628E+01
DEBUG_STATS_RL:         GtNm1 (THERMODYNAMICS)  min= -4.49726532972071E-06
DEBUG_STATS_RL:         GtNm1 (THERMODYNAMICS)  max=  2.66628055617020E-06
DEBUG_STATS_RL:         GtNm1 (THERMODYNAMICS) mean=  9.63374615285825E-09
DEBUG_STATS_RL:         GtNm1 (THERMODYNAMICS) S.D.=  1.98403414099721E-07
DEBUG_STATS_RL:         GsNm1 (THERMODYNAMICS)  min= -4.37461076781539E-07
DEBUG_STATS_RL:         GsNm1 (THERMODYNAMICS)  max=  3.04865539368063E-07
DEBUG_STATS_RL:         GsNm1 (THERMODYNAMICS) mean=  2.10816419240665E-10
DEBUG_STATS_RL:         GsNm1 (THERMODYNAMICS) S.D.=  1.84458447087132E-08
DEBUG_STATS_RL:                EtaN (DYNAMICS)  min= -1.73956358755881E+00
DEBUG_STATS_RL:                EtaN (DYNAMICS)  max=  9.80564120212124E-01
DEBUG_STATS_RL:                EtaN (DYNAMICS) mean= -1.81961638049803E-01
DEBUG_STATS_RL:                EtaN (DYNAMICS) S.D.=  7.13997005557100E-01
DEBUG_STATS_RL:                Uvel (DYNAMICS)  min= -1.49408068867340E-01
DEBUG_STATS_RL:                Uvel (DYNAMICS)  max=  1.64562878578278E-01
DEBUG_STATS_RL:                Uvel (DYNAMICS) mean=  3.87813507247684E-03
DEBUG_STATS_RL:                Uvel (DYNAMICS) S.D.=  2.46948307680174E-02
DEBUG_STATS_RL:                Vvel (DYNAMICS)  min= -1.10431285070919E-01
DEBUG_STATS_RL:                Vvel (DYNAMICS)  max=  1.18785512905161E-01
DEBUG_STATS_RL:                Vvel (DYNAMICS) mean=  9.89890021160343E-04
DEBUG_STATS_RL:                Vvel (DYNAMICS) S.D.=  1.44087354042891E-02
DEBUG_STATS_RL:                Wvel (DYNAMICS)  min= -1.23001591674780E-04
DEBUG_STATS_RL:                Wvel (DYNAMICS)  max=  1.00804334939323E-04
DEBUG_STATS_RL:                Wvel (DYNAMICS) mean= -1.36780449036862E-07
DEBUG_STATS_RL:                Wvel (DYNAMICS) S.D.=  1.23388018644563E-05
DEBUG_STATS_RL:               Theta (DYNAMICS)  min= -1.99167262991834E+00
DEBUG_STATS_RL:               Theta (DYNAMICS)  max=  3.03228907810712E+01
DEBUG_STATS_RL:               Theta (DYNAMICS) mean=  3.22688728307464E+00
DEBUG_STATS_RL:               Theta (DYNAMICS) S.D.=  5.86847750285944E+00
DEBUG_STATS_RL:                Salt (DYNAMICS)  min=  9.99999999999998E-03
DEBUG_STATS_RL:                Salt (DYNAMICS)  max=  3.74679187923209E+01
DEBUG_STATS_RL:                Salt (DYNAMICS) mean=  1.88549057708364E+01
DEBUG_STATS_RL:                Salt (DYNAMICS) S.D.=  1.73004244078628E+01
DEBUG_STATS_RL:                  Gu (DYNAMICS)  min= -1.48056376958473E-01
DEBUG_STATS_RL:                  Gu (DYNAMICS)  max=  1.71656571245660E-01
DEBUG_STATS_RL:                  Gu (DYNAMICS) mean=  3.82503857027921E-03
DEBUG_STATS_RL:                  Gu (DYNAMICS) S.D.=  2.49747597316086E-02
DEBUG_STATS_RL:                  Gv (DYNAMICS)  min= -1.08029565315801E-01
DEBUG_STATS_RL:                  Gv (DYNAMICS)  max=  1.23100041920659E-01
DEBUG_STATS_RL:                  Gv (DYNAMICS) mean=  3.41510983068684E-03
DEBUG_STATS_RL:                  Gv (DYNAMICS) S.D.=  1.53138581972667E-02
DEBUG_STATS_RL:               GuNm1 (DYNAMICS)  min= -9.15376563933012E-06
DEBUG_STATS_RL:               GuNm1 (DYNAMICS)  max=  8.65404070753411E-06
DEBUG_STATS_RL:               GuNm1 (DYNAMICS) mean= -1.06561908154526E-08
DEBUG_STATS_RL:               GuNm1 (DYNAMICS) S.D.=  1.17193156564214E-06
DEBUG_STATS_RL:               GvNm1 (DYNAMICS)  min= -9.64679582383181E-06
DEBUG_STATS_RL:               GvNm1 (DYNAMICS)  max=  1.63940105902707E-05
DEBUG_STATS_RL:               GvNm1 (DYNAMICS) mean=  7.45564191414548E-07
DEBUG_STATS_RL:               GvNm1 (DYNAMICS) S.D.=  2.59096113504796E-06
DEBUG_STATS_RL:               GtNm1 (DYNAMICS)  min= -4.49726532972071E-06
DEBUG_STATS_RL:               GtNm1 (DYNAMICS)  max=  2.66628055617020E-06
DEBUG_STATS_RL:               GtNm1 (DYNAMICS) mean=  9.63374615285825E-09
DEBUG_STATS_RL:               GtNm1 (DYNAMICS) S.D.=  1.98403414099721E-07
DEBUG_STATS_RL:               GsNm1 (DYNAMICS)  min= -4.37461076781539E-07
DEBUG_STATS_RL:               GsNm1 (DYNAMICS)  max=  3.04865539368063E-07
DEBUG_STATS_RL:               GsNm1 (DYNAMICS) mean=  2.10816419240665E-10
DEBUG_STATS_RL:               GsNm1 (DYNAMICS) S.D.=  1.84458447087132E-08
DEBUG_STATS_RL:    cg2d_b (SOLVE_FOR_PRESSURE)  min= -2.10640161578845E+04
DEBUG_STATS_RL:    cg2d_b (SOLVE_FOR_PRESSURE)  max=  2.09416395129331E+04
DEBUG_STATS_RL:    cg2d_b (SOLVE_FOR_PRESSURE) mean=  3.32833005556951E+00
DEBUG_STATS_RL:    cg2d_b (SOLVE_FOR_PRESSURE) S.D.=  3.65285484085706E+03
 cg2d: Sum(rhs),rhsMax =   3.65793684399457E-01  1.38354097858831E+00
(PID.TID 0000.0001)  cg2d: iter=     1 ; resid.=  1.31321924376267E-01
(PID.TID 0000.0001)  cg2d: iter=     2 ; resid.=  9.47478650405773E-02
(PID.TID 0000.0001)  cg2d: iter=     3 ; resid.=  9.19617750992966E-02
(PID.TID 0000.0001)  cg2d: iter=     4 ; resid.=  7.46883638664888E-02
(PID.TID 0000.0001)  cg2d: iter=     5 ; resid.=  6.14414645539389E-02
(PID.TID 0000.0001)  cg2d: iter=     6 ; resid.=  5.24522403795598E-02
(PID.TID 0000.0001)  cg2d: iter=     7 ; resid.=  4.42355137343540E-02
(PID.TID 0000.0001)  cg2d: iter=     8 ; resid.=  3.75687270669478E-02
(PID.TID 0000.0001)  cg2d: iter=     9 ; resid.=  3.10003485211437E-02
(PID.TID 0000.0001)  cg2d: iter=    10 ; resid.=  2.51006238234414E-02
(PID.TID 0000.0001)  cg2d: iter=    11 ; resid.=  2.18410528993033E-02
(PID.TID 0000.0001)  cg2d: iter=    12 ; resid.=  1.94352935166884E-02
(PID.TID 0000.0001)  cg2d: iter=    13 ; resid.=  1.57281673571469E-02
(PID.TID 0000.0001)  cg2d: iter=    14 ; resid.=  1.24111365751521E-02
(PID.TID 0000.0001)  cg2d: iter=    15 ; resid.=  9.61534409210340E-03
(PID.TID 0000.0001)  cg2d: iter=    16 ; resid.=  8.14687126767683E-03
(PID.TID 0000.0001)  cg2d: iter=    17 ; resid.=  7.24393253100982E-03
(PID.TID 0000.0001)  cg2d: iter=    18 ; resid.=  5.99192241827173E-03
(PID.TID 0000.0001)  cg2d: iter=    19 ; resid.=  5.16337041297651E-03
(PID.TID 0000.0001)  cg2d: iter=    20 ; resid.=  4.22147491913060E-03
(PID.TID 0000.0001)  cg2d: iter=    21 ; resid.=  3.65943598991996E-03
(PID.TID 0000.0001)  cg2d: iter=    22 ; resid.=  3.28517876151749E-03
(PID.TID 0000.0001)  cg2d: iter=    23 ; resid.=  2.79091091024569E-03
(PID.TID 0000.0001)  cg2d: iter=    24 ; resid.=  2.28706250033444E-03
(PID.TID 0000.0001)  cg2d: iter=    25 ; resid.=  1.81526593336387E-03
(PID.TID 0000.0001)  cg2d: iter=    26 ; resid.=  1.45240252133362E-03
(PID.TID 0000.0001)  cg2d: iter=    27 ; resid.=  1.30648658417514E-03
(PID.TID 0000.0001)  cg2d: iter=    28 ; resid.=  1.10870874921599E-03
(PID.TID 0000.0001)  cg2d: iter=    29 ; resid.=  9.24544049379701E-04
(PID.TID 0000.0001)  cg2d: iter=    30 ; resid.=  7.77489665460553E-04
(PID.TID 0000.0001)  cg2d: iter=    31 ; resid.=  6.82634044168155E-04
(PID.TID 0000.0001)  cg2d: iter=    32 ; resid.=  5.21153422071164E-04
(PID.TID 0000.0001)  cg2d: iter=    33 ; resid.=  4.08790387287273E-04
(PID.TID 0000.0001)  cg2d: iter=    34 ; resid.=  3.45795501582105E-04
(PID.TID 0000.0001)  cg2d: iter=    35 ; resid.=  2.96356418736593E-04
(PID.TID 0000.0001)  cg2d: iter=    36 ; resid.=  2.60598469012605E-04
(PID.TID 0000.0001)  cg2d: iter=    37 ; resid.=  2.16884719993478E-04
(PID.TID 0000.0001)  cg2d: iter=    38 ; resid.=  1.76134185286341E-04
(PID.TID 0000.0001)  cg2d: iter=    39 ; resid.=  1.45986052321819E-04
(PID.TID 0000.0001)  cg2d: iter=    40 ; resid.=  1.26302164353724E-04
(PID.TID 0000.0001)  cg2d: iter=    41 ; resid.=  1.08817913174078E-04
(PID.TID 0000.0001)  cg2d: iter=    42 ; resid.=  9.55223916686946E-05
(PID.TID 0000.0001)  cg2d: iter=    43 ; resid.=  8.68201792058848E-05
(PID.TID 0000.0001)  cg2d: iter=    44 ; resid.=  7.65661848764885E-05
(PID.TID 0000.0001)  cg2d: iter=    45 ; resid.=  6.22994372284033E-05
(PID.TID 0000.0001)  cg2d: iter=    46 ; resid.=  4.77317525861900E-05
(PID.TID 0000.0001)  cg2d: iter=    47 ; resid.=  3.87846058761051E-05
(PID.TID 0000.0001)  cg2d: iter=    48 ; resid.=  3.15469322912676E-05
(PID.TID 0000.0001)  cg2d: iter=    49 ; resid.=  2.42159593286337E-05
(PID.TID 0000.0001)  cg2d: iter=    50 ; resid.=  1.88446457639702E-05
(PID.TID 0000.0001)  cg2d: iter=    51 ; resid.=  1.43244356343291E-05
(PID.TID 0000.0001)  cg2d: iter=    52 ; resid.=  1.25835181503858E-05
(PID.TID 0000.0001)  cg2d: iter=    53 ; resid.=  1.05669869372849E-05
(PID.TID 0000.0001)  cg2d: iter=    54 ; resid.=  9.26458172391914E-06
(PID.TID 0000.0001)  cg2d: iter=    55 ; resid.=  8.28158388821685E-06
(PID.TID 0000.0001)  cg2d: iter=    56 ; resid.=  7.43644989392143E-06
(PID.TID 0000.0001)  cg2d: iter=    57 ; resid.=  6.48933806124397E-06
(PID.TID 0000.0001)  cg2d: iter=    58 ; resid.=  5.36504205341855E-06
(PID.TID 0000.0001)  cg2d: iter=    59 ; resid.=  4.25745304163526E-06
(PID.TID 0000.0001)  cg2d: iter=    60 ; resid.=  3.11479462435704E-06
(PID.TID 0000.0001)  cg2d: iter=    61 ; resid.=  2.42678595539264E-06
(PID.TID 0000.0001)  cg2d: iter=    62 ; resid.=  1.96946479550016E-06
(PID.TID 0000.0001)  cg2d: iter=    63 ; resid.=  1.53088882387194E-06
(PID.TID 0000.0001)  cg2d: iter=    64 ; resid.=  1.21673671914552E-06
(PID.TID 0000.0001)  cg2d: iter=    65 ; resid.=  9.22627192417722E-07
(PID.TID 0000.0001)  cg2d: iter=    66 ; resid.=  7.30619989635710E-07
(PID.TID 0000.0001)  cg2d: iter=    67 ; resid.=  6.06869117025415E-07
(PID.TID 0000.0001)  cg2d: iter=    68 ; resid.=  5.60186966246858E-07
(PID.TID 0000.0001)  cg2d: iter=    69 ; resid.=  4.64543996380205E-07
(PID.TID 0000.0001)  cg2d: iter=    70 ; resid.=  3.69920270471066E-07
(PID.TID 0000.0001)  cg2d: iter=    71 ; resid.=  3.34120086900194E-07
(PID.TID 0000.0001)  cg2d: iter=    72 ; resid.=  2.88406743657940E-07
(PID.TID 0000.0001)  cg2d: iter=    73 ; resid.=  2.54298168663993E-07
(PID.TID 0000.0001)  cg2d: iter=    74 ; resid.=  2.17555743211387E-07
(PID.TID 0000.0001)  cg2d: iter=    75 ; resid.=  1.75767312462799E-07
(PID.TID 0000.0001)  cg2d: iter=    76 ; resid.=  1.35742289859477E-07
(PID.TID 0000.0001)  cg2d: iter=    77 ; resid.=  1.14506189145906E-07
(PID.TID 0000.0001)  cg2d: iter=    78 ; resid.=  9.09336685418752E-08
(PID.TID 0000.0001)  cg2d: iter=    79 ; resid.=  7.70144209835897E-08
(PID.TID 0000.0001)  cg2d: iter=    80 ; resid.=  6.18148878162119E-08
(PID.TID 0000.0001)  cg2d: iter=    81 ; resid.=  4.92987556832656E-08
(PID.TID 0000.0001)  cg2d: iter=    82 ; resid.=  4.07844483834394E-08
(PID.TID 0000.0001)  cg2d: iter=    83 ; resid.=  3.18174016453293E-08
(PID.TID 0000.0001)  cg2d: iter=    84 ; resid.=  2.35892707865937E-08
(PID.TID 0000.0001)  cg2d: iter=    85 ; resid.=  1.74861998543391E-08
(PID.TID 0000.0001)  cg2d: iter=    86 ; resid.=  1.28133382913906E-08
(PID.TID 0000.0001)  cg2d: iter=    87 ; resid.=  9.11229872035465E-09
(PID.TID 0000.0001)  cg2d: iter=    88 ; resid.=  6.80221839364607E-09
(PID.TID 0000.0001)  cg2d: iter=    89 ; resid.=  6.04697856290523E-09
(PID.TID 0000.0001)  cg2d: iter=    90 ; resid.=  4.88885856336583E-09
(PID.TID 0000.0001)  cg2d: iter=    91 ; resid.=  3.82085303249652E-09
(PID.TID 0000.0001)  cg2d: iter=    92 ; resid.=  3.04888800418269E-09
(PID.TID 0000.0001)  cg2d: iter=    93 ; resid.=  2.31129179222895E-09
(PID.TID 0000.0001)  cg2d: iter=    94 ; resid.=  1.76984235967021E-09
(PID.TID 0000.0001)  cg2d: iter=    95 ; resid.=  1.55008250807583E-09
(PID.TID 0000.0001)  cg2d: iter=    96 ; resid.=  1.28595860051478E-09
(PID.TID 0000.0001)  cg2d: iter=    97 ; resid.=  1.01993553964603E-09
(PID.TID 0000.0001)  cg2d: iter=    98 ; resid.=  8.05262985939352E-10
(PID.TID 0000.0001)  cg2d: iter=    99 ; resid.=  6.52316588688901E-10
(PID.TID 0000.0001)  cg2d: iter=   100 ; resid.=  6.08901739132125E-10
(PID.TID 0000.0001)  cg2d: iter=   101 ; resid.=  4.99512037555271E-10
(PID.TID 0000.0001)  cg2d: iter=   102 ; resid.=  3.71136074367458E-10
(PID.TID 0000.0001)  cg2d: iter=   103 ; resid.=  2.69352753008145E-10
(PID.TID 0000.0001)  cg2d: iter=   104 ; resid.=  2.23065645004612E-10
(PID.TID 0000.0001)  cg2d: iter=   105 ; resid.=  1.73146947195197E-10
(PID.TID 0000.0001)  cg2d: iter=   106 ; resid.=  1.43109503870225E-10
(PID.TID 0000.0001)  cg2d: iter=   107 ; resid.=  1.21881306886315E-10
(PID.TID 0000.0001)  cg2d: iter=   108 ; resid.=  1.04397197104340E-10
(PID.TID 0000.0001)  cg2d: iter=   109 ; resid.=  8.75257217838563E-11
(PID.TID 0000.0001)  cg2d: iter=   110 ; resid.=  6.73045646216482E-11
(PID.TID 0000.0001)  cg2d: iter=   111 ; resid.=  5.17299954757223E-11
(PID.TID 0000.0001)  cg2d: iter=   112 ; resid.=  4.02174407513845E-11
(PID.TID 0000.0001)  cg2d: iter=   113 ; resid.=  2.83285894974380E-11
(PID.TID 0000.0001)  cg2d: iter=   114 ; resid.=  2.05082168129739E-11
(PID.TID 0000.0001)  cg2d: iter=   115 ; resid.=  1.49245379986726E-11
(PID.TID 0000.0001)  cg2d: iter=   116 ; resid.=  9.92661918148637E-12
(PID.TID 0000.0001)  cg2d: iter=   117 ; resid.=  7.38074948233348E-12
(PID.TID 0000.0001)  cg2d: iter=   118 ; resid.=  5.08487254886939E-12
(PID.TID 0000.0001)  cg2d: iter=   119 ; resid.=  3.83455039136662E-12
(PID.TID 0000.0001)  cg2d: iter=   120 ; resid.=  2.84251962466486E-12
(PID.TID 0000.0001)  cg2d: iter=   121 ; resid.=  2.04851842662101E-12
(PID.TID 0000.0001)  cg2d: iter=   122 ; resid.=  1.65540532900045E-12
(PID.TID 0000.0001)  cg2d: iter=   123 ; resid.=  1.40104580683983E-12
(PID.TID 0000.0001)  cg2d: iter=   124 ; resid.=  1.12943362733781E-12
(PID.TID 0000.0001)  cg2d: iter=   125 ; resid.=  9.21916469302877E-13
(PID.TID 0000.0001)  cg2d: iter=   126 ; resid.=  7.29690681202598E-13
(PID.TID 0000.0001)  cg2d: iter=   127 ; resid.=  5.33262740214936E-13
(PID.TID 0000.0001)  cg2d: iter=   128 ; resid.=  3.63657989760846E-13
(PID.TID 0000.0001)  cg2d: iter=   129 ; resid.=  2.68014857357349E-13
(PID.TID 0000.0001)  cg2d: iter=   130 ; resid.=  1.94203161623089E-13
(PID.TID 0000.0001)  cg2d: iter=   131 ; resid.=  1.27626572013327E-13
(PID.TID 0000.0001)  cg2d: iter=   132 ; resid.=  8.58382268394091E-14
DEBUG_STATS_RL:    cg2d_x (SOLVE_FOR_PRESSURE)  min= -1.70627862194234E+01
DEBUG_STATS_RL:    cg2d_x (SOLVE_FOR_PRESSURE)  max=  9.55171467661532E+00
DEBUG_STATS_RL:    cg2d_x (SOLVE_FOR_PRESSURE) mean= -1.78893465914149E+00
DEBUG_STATS_RL:    cg2d_x (SOLVE_FOR_PRESSURE) S.D.=  6.98728516547244E+00
(PID.TID 0000.0001)      cg2d_init_res =   3.82940832676573E-01
(PID.TID 0000.0001)      cg2d_iters(min,last) =      -1     132
(PID.TID 0000.0001)      cg2d_last_res =   8.58382268394091E-14
(PID.TID 0000.0001) // =======================================================
(PID.TID 0000.0001) // Begin MONITOR dynamic field statistics
(PID.TID 0000.0001) // =======================================================
(PID.TID 0000.0001) %MON time_tsnumber                =                    46
(PID.TID 0000.0001) %MON time_secondsf                =   3.9744000000000E+06
(PID.TID 0000.0001) %MON dynstat_eta_max              =   9.7367122085788E-01
(PID.TID 0000.0001) %MON dynstat_eta_min              =  -1.7393258123779E+00
(PID.TID 0000.0001) %MON dynstat_eta_mean             =  -3.4726997136843E-03
(PID.TID 0000.0001) %MON dynstat_eta_sd               =   6.2690635077417E-01
(PID.TID 0000.0001) %MON dynstat_eta_del2             =   2.2232729148569E-03
(PID.TID 0000.0001) %MON dynstat_uvel_max             =   1.6981654370298E-01
(PID.TID 0000.0001) %MON dynstat_uvel_min             =  -1.4782103831741E-01
(PID.TID 0000.0001) %MON dynstat_uvel_mean            =   1.0474503737389E-03
(PID.TID 0000.0001) %MON dynstat_uvel_sd              =   1.5428318584207E-02
(PID.TID 0000.0001) %MON dynstat_uvel_del2            =   9.2071339316844E-05
(PID.TID 0000.0001) %MON dynstat_vvel_max             =   1.2202454160287E-01
(PID.TID 0000.0001) %MON dynstat_vvel_min             =  -1.0882663759887E-01
(PID.TID 0000.0001) %MON dynstat_vvel_mean            =   3.3553515151623E-05
(PID.TID 0000.0001) %MON dynstat_vvel_sd              =   9.1278652332955E-03
(PID.TID 0000.0001) %MON dynstat_vvel_del2            =   7.8733079979993E-05
(PID.TID 0000.0001) %MON dynstat_wvel_max             =   9.4149006373771E-05
(PID.TID 0000.0001) %MON dynstat_wvel_min             =  -1.1399671961758E-04
(PID.TID 0000.0001) %MON dynstat_wvel_mean            =   1.5091061699514E-22
(PID.TID 0000.0001) %MON dynstat_wvel_sd              =   1.3967375152754E-05
(PID.TID 0000.0001) %MON dynstat_wvel_del2            =   1.3995418260601E-07
(PID.TID 0000.0001) %MON dynstat_theta_max            =   3.0322890781071E+01
(PID.TID 0000.0001) %MON dynstat_theta_min            =  -1.9916726299183E+00
(PID.TID 0000.0001) %MON dynstat_theta_mean           =   3.6323055631965E+00
(PID.TID 0000.0001) %MON dynstat_theta_sd             =   4.4204784490267E+00
(PID.TID 0000.0001) %MON dynstat_theta_del2           =   4.7411965433919E-03
(PID.TID 0000.0001) %MON dynstat_salt_max             =   3.7467918792321E+01
(PID.TID 0000.0001) %MON dynstat_salt_min             =   2.9845851185295E+01
(PID.TID 0000.0001) %MON dynstat_salt_mean            =   3.4727997934141E+01
(PID.TID 0000.0001) %MON dynstat_salt_sd              =   2.9637859170198E-01
(PID.TID 0000.0001) %MON dynstat_salt_del2            =   9.8571224839474E-04
(PID.TID 0000.0001) %MON dynstat_sst_max              =   3.0322890781071E+01
(PID.TID 0000.0001) %MON dynstat_sst_min              =  -1.9916726299183E+00
(PID.TID 0000.0001) %MON dynstat_sst_mean             =   1.8906486911112E+01
(PID.TID 0000.0001) %MON dynstat_sst_sd               =   9.0114162651889E+00
(PID.TID 0000.0001) %MON dynstat_sst_del2             =   2.7249318037119E-02
(PID.TID 0000.0001) %MON dynstat_sss_max              =   3.7442566936969E+01
(PID.TID 0000.0001) %MON dynstat_sss_min              =   2.9845851185295E+01
(PID.TID 0000.0001) %MON dynstat_sss_mean             =   3.4854216421264E+01
(PID.TID 0000.0001) %MON dynstat_sss_sd               =   9.7740482245074E-01
(PID.TID 0000.0001) %MON dynstat_sss_del2             =   7.8865780983108E-03
(PID.TID 0000.0001) %MON forcing_qnet_max             =   3.5845223999023E+02
(PID.TID 0000.0001) %MON forcing_qnet_min             =  -1.7283396911621E+02
(PID.TID 0000.0001) %MON forcing_qnet_mean            =  -1.3965250978943E+01
(PID.TID 0000.0001) %MON forcing_qnet_sd              =   7.9600844041117E+01
(PID.TID 0000.0001) %MON forcing_qnet_del2            =   9.4924046503394E-01
(PID.TID 0000.0001) %MON forcing_qsw_max              =   0.0000000000000E+00
(PID.TID 0000.0001) %MON forcing_qsw_min              =   0.0000000000000E+00
(PID.TID 0000.0001) %MON forcing_qsw_mean             =   0.0000000000000E+00
(PID.TID 0000.0001) %MON forcing_qsw_sd               =   0.0000000000000E+00
(PID.TID 0000.0001) %MON forcing_qsw_del2             =   0.0000000000000E+00
(PID.TID 0000.0001) %MON forcing_empmr_max            =   7.2751547008920E-05
(PID.TID 0000.0001) %MON forcing_empmr_min            =  -7.8545284054599E-05
(PID.TID 0000.0001) %MON forcing_empmr_mean           =   9.4340897990939E-07
(PID.TID 0000.0001) %MON forcing_empmr_sd             =   2.7981615340984E-05
(PID.TID 0000.0001) %MON forcing_empmr_del2           =   3.5607128030285E-07
(PID.TID 0000.0001) %MON forcing_fu_max               =   3.0463552474976E-01
(PID.TID 0000.0001) %MON forcing_fu_min               =  -2.1965765953064E-01
(PID.TID 0000.0001) %MON forcing_fu_mean              =   1.7630741616636E-02
(PID.TID 0000.0001) %MON forcing_fu_sd                =   9.3014374943535E-02
(PID.TID 0000.0001) %MON forcing_fu_del2              =   7.4725854650669E-04
(PID.TID 0000.0001) %MON forcing_fv_max               =   2.0158496499062E-01
(PID.TID 0000.0001) %MON forcing_fv_min               =  -1.9967925548553E-01
(PID.TID 0000.0001) %MON forcing_fv_mean              =  -7.2167249409603E-03
(PID.TID 0000.0001) %MON forcing_fv_sd                =   4.5051757763558E-02
(PID.TID 0000.0001) %MON forcing_fv_del2              =   5.4153881017288E-04
(PID.TID 0000.0001) %MON trAdv_CFL_u_max              =   4.8337223339748E-02
(PID.TID 0000.0001) %MON trAdv_CFL_v_max              =   2.8416678238667E-02
(PID.TID 0000.0001) %MON trAdv_CFL_w_max              =   3.1758884562915E-02
(PID.TID 0000.0001) %MON advcfl_uvel_max              =   4.6691657061927E-02
(PID.TID 0000.0001) %MON advcfl_vvel_max              =   2.3707411395078E-02
(PID.TID 0000.0001) %MON advcfl_wvel_max              =   3.4917448920172E-02
(PID.TID 0000.0001) %MON advcfl_W_hf_max              =   4.1900938704207E-02
(PID.TID 0000.0001) %MON pe_b_mean                    =   5.0292110975872E-04
(PID.TID 0000.0001) %MON ke_max                       =   1.5075553256489E-02
(PID.TID 0000.0001) %MON ke_mean                      =   1.4604602725197E-04
(PID.TID 0000.0001) %MON ke_vol                       =   1.3226782436723E+18
(PID.TID 0000.0001) %MON vort_r_min                   =  -4.9466500536140E-07
(PID.TID 0000.0001) %MON vort_r_max                   =   4.1728767289661E-07
(PID.TID 0000.0001) %MON vort_a_mean                  =  -2.5274806742349E-05
(PID.TID 0000.0001) %MON vort_a_sd                    =   7.3604463901767E-05
(PID.TID 0000.0001) %MON vort_p_mean                  =  -3.1845654974059E-05
(PID.TID 0000.0001) %MON vort_p_sd                    =   1.3162400770376E-04
(PID.TID 0000.0001) %MON surfExpan_theta_mean         =   1.8054149701247E-07
(PID.TID 0000.0001) %MON surfExpan_salt_mean          =   8.5003632386702E-08
(PID.TID 0000.0001) // =======================================================
(PID.TID 0000.0001) // End MONITOR dynamic field statistics
(PID.TID 0000.0001) // =======================================================
 EXTERNAL_FIELDS_LOAD,        46 : iP,iLd,i0,i1=    2    3    2    3 ; Wght=  0.9666666667  0.0333333333
 EXTERNAL_FIELDS_LOAD: (fu0,1),fu,fv= -1.4435E-02 -2.7199E-02 -1.4860E-02 -1.7067E-02
 EXTERNAL_FIELDS_LOAD: SST,SSS,Q,E-P= -5.2026E-01  3.4426E+01  2.3964E+02  8.4007E-06
DEBUG_STATS_RL:          Uvel (THERMODYNAMICS)  min= -1.47821038317413E-01
DEBUG_STATS_RL:          Uvel (THERMODYNAMICS)  max=  1.69816543702979E-01
DEBUG_STATS_RL:          Uvel (THERMODYNAMICS) mean=  3.99983013916413E-03
DEBUG_STATS_RL:          Uvel (THERMODYNAMICS) S.D.=  2.46045650926610E-02
DEBUG_STATS_RL:          Vvel (THERMODYNAMICS)  min= -1.08826637598872E-01
DEBUG_STATS_RL:          Vvel (THERMODYNAMICS)  max=  1.22024541602873E-01
DEBUG_STATS_RL:          Vvel (THERMODYNAMICS) mean=  1.15737218157808E-03
DEBUG_STATS_RL:          Vvel (THERMODYNAMICS) S.D.=  1.44248870823627E-02
DEBUG_STATS_RL:          Wvel (THERMODYNAMICS)  min= -1.13996719617584E-04
DEBUG_STATS_RL:          Wvel (THERMODYNAMICS)  max=  9.41490063737712E-05
DEBUG_STATS_RL:          Wvel (THERMODYNAMICS) mean= -9.30373309814205E-08
DEBUG_STATS_RL:          Wvel (THERMODYNAMICS) S.D.=  1.22459076860410E-05
DEBUG_STATS_RL:         Theta (THERMODYNAMICS)  min= -1.98949571071490E+00
DEBUG_STATS_RL:         Theta (THERMODYNAMICS)  max=  3.03394964648960E+01
DEBUG_STATS_RL:         Theta (THERMODYNAMICS) mean=  3.22725493007462E+00
DEBUG_STATS_RL:         Theta (THERMODYNAMICS) S.D.=  5.86926801905313E+00
DEBUG_STATS_RL:          Salt (THERMODYNAMICS)  min=  9.99999999999998E-03
DEBUG_STATS_RL:          Salt (THERMODYNAMICS)  max=  3.74684481873233E+01
DEBUG_STATS_RL:          Salt (THERMODYNAMICS) mean=  1.88549165346726E+01
DEBUG_STATS_RL:          Salt (THERMODYNAMICS) S.D.=  1.73004346158908E+01
DEBUG_STATS_RL:         GtNm1 (THERMODYNAMICS)  min= -4.69761580165296E-06
DEBUG_STATS_RL:         GtNm1 (THERMODYNAMICS)  max=  2.73961103132060E-06
DEBUG_STATS_RL:         GtNm1 (THERMODYNAMICS) mean=  8.62787586531517E-09
DEBUG_STATS_RL:         GtNm1 (THERMODYNAMICS) S.D.=  1.96491505113403E-07
DEBUG_STATS_RL:         GsNm1 (THERMODYNAMICS)  min= -4.50277345348807E-07
DEBUG_STATS_RL:         GsNm1 (THERMODYNAMICS)  max=  3.13768499417440E-07
DEBUG_STATS_RL:         GsNm1 (THERMODYNAMICS) mean=  1.86654600978370E-10
DEBUG_STATS_RL:         GsNm1 (THERMODYNAMICS) S.D.=  1.84099671337980E-08
DEBUG_STATS_RL:                EtaN (DYNAMICS)  min= -1.73932581237793E+00
DEBUG_STATS_RL:                EtaN (DYNAMICS)  max=  9.73671220857882E-01
DEBUG_STATS_RL:                EtaN (DYNAMICS) mean= -1.82358273103108E-01
DEBUG_STATS_RL:                EtaN (DYNAMICS) S.D.=  7.12261484757640E-01
DEBUG_STATS_RL:                Uvel (DYNAMICS)  min= -1.47821038317413E-01
DEBUG_STATS_RL:                Uvel (DYNAMICS)  max=  1.69816543702979E-01
DEBUG_STATS_RL:                Uvel (DYNAMICS) mean=  3.99983013916413E-03
DEBUG_STATS_RL:                Uvel (DYNAMICS) S.D.=  2.46045650926610E-02
DEBUG_STATS_RL:                Vvel (DYNAMICS)  min= -1.08826637598872E-01
DEBUG_STATS_RL:                Vvel (DYNAMICS)  max=  1.22024541602873E-01
DEBUG_STATS_RL:                Vvel (DYNAMICS) mean=  1.15737218157808E-03
DEBUG_STATS_RL:                Vvel (DYNAMICS) S.D.=  1.44248870823627E-02
DEBUG_STATS_RL:                Wvel (DYNAMICS)  min= -1.13996719617584E-04
DEBUG_STATS_RL:                Wvel (DYNAMICS)  max=  9.41490063737712E-05
DEBUG_STATS_RL:                Wvel (DYNAMICS) mean= -9.30373309814205E-08
DEBUG_STATS_RL:                Wvel (DYNAMICS) S.D.=  1.22459076860410E-05
DEBUG_STATS_RL:               Theta (DYNAMICS)  min= -1.98949571071490E+00
DEBUG_STATS_RL:               Theta (DYNAMICS)  max=  3.03394964648960E+01
DEBUG_STATS_RL:               Theta (DYNAMICS) mean=  3.22725493007462E+00
DEBUG_STATS_RL:               Theta (DYNAMICS) S.D.=  5.86926801905313E+00
DEBUG_STATS_RL:                Salt (DYNAMICS)  min=  9.99999999999998E-03
DEBUG_STATS_RL:                Salt (DYNAMICS)  max=  3.74684481873233E+01
DEBUG_STATS_RL:                Salt (DYNAMICS) mean=  1.88549165346726E+01
DEBUG_STATS_RL:                Salt (DYNAMICS) S.D.=  1.73004346158908E+01
DEBUG_STATS_RL:                  Gu (DYNAMICS)  min= -1.46239632995632E-01
DEBUG_STATS_RL:                  Gu (DYNAMICS)  max=  1.78211007328763E-01
DEBUG_STATS_RL:                  Gu (DYNAMICS) mean=  3.95837679053418E-03
DEBUG_STATS_RL:                  Gu (DYNAMICS) S.D.=  2.48049686857756E-02
DEBUG_STATS_RL:                  Gv (DYNAMICS)  min= -1.07868182633114E-01
DEBUG_STATS_RL:                  Gv (DYNAMICS)  max=  1.26606389944818E-01
DEBUG_STATS_RL:                  Gv (DYNAMICS) mean=  3.56755533976400E-03
DEBUG_STATS_RL:                  Gv (DYNAMICS) S.D.=  1.54792184091540E-02
DEBUG_STATS_RL:               GuNm1 (DYNAMICS)  min= -9.22896566702701E-06
DEBUG_STATS_RL:               GuNm1 (DYNAMICS)  max=  8.70978023761162E-06
DEBUG_STATS_RL:               GuNm1 (DYNAMICS) mean= -9.06505278752524E-09
DEBUG_STATS_RL:               GuNm1 (DYNAMICS) S.D.=  1.17330219907825E-06
DEBUG_STATS_RL:               GvNm1 (DYNAMICS)  min= -9.57383730222781E-06
DEBUG_STATS_RL:               GvNm1 (DYNAMICS)  max=  1.64216038869930E-05
DEBUG_STATS_RL:               GvNm1 (DYNAMICS) mean=  7.45419368236234E-07
DEBUG_STATS_RL:               GvNm1 (DYNAMICS) S.D.=  2.59254326783470E-06
DEBUG_STATS_RL:               GtNm1 (DYNAMICS)  min= -4.69761580165296E-06
DEBUG_STATS_RL:               GtNm1 (DYNAMICS)  max=  2.73961103132060E-06
DEBUG_STATS_RL:               GtNm1 (DYNAMICS) mean=  8.62787586531517E-09
DEBUG_STATS_RL:               GtNm1 (DYNAMICS) S.D.=  1.96491505113403E-07
DEBUG_STATS_RL:               GsNm1 (DYNAMICS)  min= -4.50277345348807E-07
DEBUG_STATS_RL:               GsNm1 (DYNAMICS)  max=  3.13768499417440E-07
DEBUG_STATS_RL:               GsNm1 (DYNAMICS) mean=  1.86654600978370E-10
DEBUG_STATS_RL:               GsNm1 (DYNAMICS) S.D.=  1.84099671337980E-08
DEBUG_STATS_RL:    cg2d_b (SOLVE_FOR_PRESSURE)  min= -2.09119490400053E+04
DEBUG_STATS_RL:    cg2d_b (SOLVE_FOR_PRESSURE)  max=  2.16260551502102E+04
DEBUG_STATS_RL:    cg2d_b (SOLVE_FOR_PRESSURE) mean=  3.40276287361629E+00
DEBUG_STATS_RL:    cg2d_b (SOLVE_FOR_PRESSURE) S.D.=  3.66376004541387E+03
 cg2d: Sum(rhs),rhsMax =   3.64254876708103E-01  1.42045720442191E+00
(PID.TID 0000.0001)  cg2d: iter=     1 ; resid.=  1.29013104083526E-01
(PID.TID 0000.0001)  cg2d: iter=     2 ; resid.=  9.65181124125448E-02
(PID.TID 0000.0001)  cg2d: iter=     3 ; resid.=  9.50052115978068E-02
(PID.TID 0000.0001)  cg2d: iter=     4 ; resid.=  7.74855018947342E-02
(PID.TID 0000.0001)  cg2d: iter=     5 ; resid.=  6.67567749243343E-02
(PID.TID 0000.0001)  cg2d: iter=     6 ; resid.=  5.99040309160589E-02
(PID.TID 0000.0001)  cg2d: iter=     7 ; resid.=  5.15203725807610E-02
(PID.TID 0000.0001)  cg2d: iter=     8 ; resid.=  4.30855135683898E-02
(PID.TID 0000.0001)  cg2d: iter=     9 ; resid.=  3.46558900612766E-02
(PID.TID 0000.0001)  cg2d: iter=    10 ; resid.=  2.81039428987635E-02
(PID.TID 0000.0001)  cg2d: iter=    11 ; resid.=  2.44611564865039E-02
(PID.TID 0000.0001)  cg2d: iter=    12 ; resid.=  2.13196350478891E-02
(PID.TID 0000.0001)  cg2d: iter=    13 ; resid.=  1.70621486048602E-02
(PID.TID 0000.0001)  cg2d: iter=    14 ; resid.=  1.35682567256508E-02
(PID.TID 0000.0001)  cg2d: iter=    15 ; resid.=  1.04694501019387E-02
(PID.TID 0000.0001)  cg2d: iter=    16 ; resid.=  8.85007425259493E-03
(PID.TID 0000.0001)  cg2d: iter=    17 ; resid.=  7.98265132734430E-03
(PID.TID 0000.0001)  cg2d: iter=    18 ; resid.=  6.74713134089712E-03
(PID.TID 0000.0001)  cg2d: iter=    19 ; resid.=  5.82168514337141E-03
(PID.TID 0000.0001)  cg2d: iter=    20 ; resid.=  4.69489247976583E-03
(PID.TID 0000.0001)  cg2d: iter=    21 ; resid.=  4.03376216185649E-03
(PID.TID 0000.0001)  cg2d: iter=    22 ; resid.=  3.60273375870242E-03
(PID.TID 0000.0001)  cg2d: iter=    23 ; resid.=  3.03226810460225E-03
(PID.TID 0000.0001)  cg2d: iter=    24 ; resid.=  2.46129901201146E-03
(PID.TID 0000.0001)  cg2d: iter=    25 ; resid.=  1.95550487944978E-03
(PID.TID 0000.0001)  cg2d: iter=    26 ; resid.=  1.53619196431408E-03
(PID.TID 0000.0001)  cg2d: iter=    27 ; resid.=  1.37223941433666E-03
(PID.TID 0000.0001)  cg2d: iter=    28 ; resid.=  1.14751927501168E-03
(PID.TID 0000.0001)  cg2d: iter=    29 ; resid.=  9.31171084199161E-04
(PID.TID 0000.0001)  cg2d: iter=    30 ; resid.=  7.77368393677877E-04
(PID.TID 0000.0001)  cg2d: iter=    31 ; resid.=  6.87181657908690E-04
(PID.TID 0000.0001)  cg2d: iter=    32 ; resid.=  5.25981358295826E-04
(PID.TID 0000.0001)  cg2d: iter=    33 ; resid.=  4.12046145410807E-04
(PID.TID 0000.0001)  cg2d: iter=    34 ; resid.=  3.48692560534169E-04
(PID.TID 0000.0001)  cg2d: iter=    35 ; resid.=  3.02680292467842E-04
(PID.TID 0000.0001)  cg2d: iter=    36 ; resid.=  2.71690651104635E-04
(PID.TID 0000.0001)  cg2d: iter=    37 ; resid.=  2.29099708226569E-04
(PID.TID 0000.0001)  cg2d: iter=    38 ; resid.=  1.88968732878209E-04
(PID.TID 0000.0001)  cg2d: iter=    39 ; resid.=  1.57429464438828E-04
(PID.TID 0000.0001)  cg2d: iter=    40 ; resid.=  1.35551381960204E-04
(PID.TID 0000.0001)  cg2d: iter=    41 ; resid.=  1.15505041129056E-04
(PID.TID 0000.0001)  cg2d: iter=    42 ; resid.=  1.01290688979651E-04
(PID.TID 0000.0001)  cg2d: iter=    43 ; resid.=  9.09956235543469E-05
(PID.TID 0000.0001)  cg2d: iter=    44 ; resid.=  7.97394796971817E-05
(PID.TID 0000.0001)  cg2d: iter=    45 ; resid.=  6.54525570188843E-05
(PID.TID 0000.0001)  cg2d: iter=    46 ; resid.=  5.06984572107784E-05
(PID.TID 0000.0001)  cg2d: iter=    47 ; resid.=  4.11978393819365E-05
(PID.TID 0000.0001)  cg2d: iter=    48 ; resid.=  3.29172589130197E-05
(PID.TID 0000.0001)  cg2d: iter=    49 ; resid.=  2.54082771706841E-05
(PID.TID 0000.0001)  cg2d: iter=    50 ; resid.=  2.02999302217630E-05
(PID.TID 0000.0001)  cg2d: iter=    51 ; resid.=  1.59504046592109E-05
(PID.TID 0000.0001)  cg2d: iter=    52 ; resid.=  1.43765711495658E-05
(PID.TID 0000.0001)  cg2d: iter=    53 ; resid.=  1.20928262700939E-05
(PID.TID 0000.0001)  cg2d: iter=    54 ; resid.=  1.04988682868289E-05
(PID.TID 0000.0001)  cg2d: iter=    55 ; resid.=  9.45782203647251E-06
(PID.TID 0000.0001)  cg2d: iter=    56 ; resid.=  8.44817692206570E-06
(PID.TID 0000.0001)  cg2d: iter=    57 ; resid.=  7.12800953367098E-06
(PID.TID 0000.0001)  cg2d: iter=    58 ; resid.=  5.73916318792227E-06
(PID.TID 0000.0001)  cg2d: iter=    59 ; resid.=  4.45288391963383E-06
(PID.TID 0000.0001)  cg2d: iter=    60 ; resid.=  3.23594676657656E-06
(PID.TID 0000.0001)  cg2d: iter=    61 ; resid.=  2.55790372159825E-06
(PID.TID 0000.0001)  cg2d: iter=    62 ; resid.=  2.09241807374958E-06
(PID.TID 0000.0001)  cg2d: iter=    63 ; resid.=  1.65679758853872E-06
(PID.TID 0000.0001)  cg2d: iter=    64 ; resid.=  1.36127737070954E-06
(PID.TID 0000.0001)  cg2d: iter=    65 ; resid.=  1.04851997249364E-06
(PID.TID 0000.0001)  cg2d: iter=    66 ; resid.=  8.45290039712475E-07
(PID.TID 0000.0001)  cg2d: iter=    67 ; resid.=  7.29006499116168E-07
(PID.TID 0000.0001)  cg2d: iter=    68 ; resid.=  6.85735577658501E-07
(PID.TID 0000.0001)  cg2d: iter=    69 ; resid.=  5.74414818210646E-07
(PID.TID 0000.0001)  cg2d: iter=    70 ; resid.=  4.70021506468725E-07
(PID.TID 0000.0001)  cg2d: iter=    71 ; resid.=  4.16210428447013E-07
(PID.TID 0000.0001)  cg2d: iter=    72 ; resid.=  3.46471266397547E-07
(PID.TID 0000.0001)  cg2d: iter=    73 ; resid.=  2.94529788478431E-07
(PID.TID 0000.0001)  cg2d: iter=    74 ; resid.=  2.45487043797548E-07
(PID.TID 0000.0001)  cg2d: iter=    75 ; resid.=  1.92094448766220E-07
(PID.TID 0000.0001)  cg2d: iter=    76 ; resid.=  1.46603496681974E-07
(PID.TID 0000.0001)  cg2d: iter=    77 ; resid.=  1.24181787538467E-07
(PID.TID 0000.0001)  cg2d: iter=    78 ; resid.=  9.76403792411427E-08
(PID.TID 0000.0001)  cg2d: iter=    79 ; resid.=  8.22647840050625E-08
(PID.TID 0000.0001)  cg2d: iter=    80 ; resid.=  6.56883655918009E-08
(PID.TID 0000.0001)  cg2d: iter=    81 ; resid.=  5.26640821592618E-08
(PID.TID 0000.0001)  cg2d: iter=    82 ; resid.=  4.38958747293312E-08
(PID.TID 0000.0001)  cg2d: iter=    83 ; resid.=  3.46997460537207E-08
(PID.TID 0000.0001)  cg2d: iter=    84 ; resid.=  2.55369534636541E-08
(PID.TID 0000.0001)  cg2d: iter=    85 ; resid.=  1.92244126417929E-08
(PID.TID 0000.0001)  cg2d: iter=    86 ; resid.=  1.45828449320128E-08
(PID.TID 0000.0001)  cg2d: iter=    87 ; resid.=  1.07182595730788E-08
(PID.TID 0000.0001)  cg2d: iter=    88 ; resid.=  8.27577992230886E-09
(PID.TID 0000.0001)  cg2d: iter=    89 ; resid.=  7.37292858927473E-09
(PID.TID 0000.0001)  cg2d: iter=    90 ; resid.=  5.73998013784043E-09
(PID.TID 0000.0001)  cg2d: iter=    91 ; resid.=  4.42213624541132E-09
(PID.TID 0000.0001)  cg2d: iter=    92 ; resid.=  3.46093200956717E-09
(PID.TID 0000.0001)  cg2d: iter=    93 ; resid.=  2.59169707908177E-09
(PID.TID 0000.0001)  cg2d: iter=    94 ; resid.=  1.98156387947442E-09
(PID.TID 0000.0001)  cg2d: iter=    95 ; resid.=  1.69869044228096E-09
(PID.TID 0000.0001)  cg2d: iter=    96 ; resid.=  1.35403601169682E-09
(PID.TID 0000.0001)  cg2d: iter=    97 ; resid.=  1.07426766841508E-09
(PID.TID 0000.0001)  cg2d: iter=    98 ; resid.=  8.71742668490964E-10
(PID.TID 0000.0001)  cg2d: iter=    99 ; resid.=  7.17608661412506E-10
(PID.TID 0000.0001)  cg2d: iter=   100 ; resid.=  6.69764604858900E-10
(PID.TID 0000.0001)  cg2d: iter=   101 ; resid.=  5.42340701531037E-10
(PID.TID 0000.0001)  cg2d: iter=   102 ; resid.=  4.19749805362281E-10
(PID.TID 0000.0001)  cg2d: iter=   103 ; resid.=  3.25326401637992E-10
(PID.TID 0000.0001)  cg2d: iter=   104 ; resid.=  2.77328247295252E-10
(PID.TID 0000.0001)  cg2d: iter=   105 ; resid.=  2.17331825178065E-10
(PID.TID 0000.0001)  cg2d: iter=   106 ; resid.=  1.81602924384044E-10
(PID.TID 0000.0001)  cg2d: iter=   107 ; resid.=  1.51429292448184E-10
(PID.TID 0000.0001)  cg2d: iter=   108 ; resid.=  1.22481587276428E-10
(PID.TID 0000.0001)  cg2d: iter=   109 ; resid.=  9.59816471478524E-11
(PID.TID 0000.0001)  cg2d: iter=   110 ; resid.=  7.23155490773722E-11
(PID.TID 0000.0001)  cg2d: iter=   111 ; resid.=  5.48417895557143E-11
(PID.TID 0000.0001)  cg2d: iter=   112 ; resid.=  4.14597699343243E-11
(PID.TID 0000.0001)  cg2d: iter=   113 ; resid.=  2.83936112598719E-11
(PID.TID 0000.0001)  cg2d: iter=   114 ; resid.=  2.07531544594476E-11
(PID.TID 0000.0001)  cg2d: iter=   115 ; resid.=  1.56713411009405E-11
(PID.TID 0000.0001)  cg2d: iter=   116 ; resid.=  1.07118975003215E-11
(PID.TID 0000.0001)  cg2d: iter=   117 ; resid.=  8.07009739416968E-12
(PID.TID 0000.0001)  cg2d: iter=   118 ; resid.=  5.75013072394009E-12
(PID.TID 0000.0001)  cg2d: iter=   119 ; resid.=  4.50209165993939E-12
(PID.TID 0000.0001)  cg2d: iter=   120 ; resid.=  3.48832464333259E-12
(PID.TID 0000.0001)  cg2d: iter=   121 ; resid.=  2.59588407533984E-12
(PID.TID 0000.0001)  cg2d: iter=   122 ; resid.=  2.19586738728605E-12
(PID.TID 0000.0001)  cg2d: iter=   123 ; resid.=  1.86235138076886E-12
(PID.TID 0000.0001)  cg2d: iter=   124 ; resid.=  1.42365157370406E-12
(PID.TID 0000.0001)  cg2d: iter=   125 ; resid.=  1.08856438291047E-12
(PID.TID 0000.0001)  cg2d: iter=   126 ; resid.=  8.18804907385543E-13
(PID.TID 0000.0001)  cg2d: iter=   127 ; resid.=  5.61397674280237E-13
(PID.TID 0000.0001)  cg2d: iter=   128 ; resid.=  3.68414214097314E-13
(PID.TID 0000.0001)  cg2d: iter=   129 ; resid.=  2.64855657476741E-13
(PID.TID 0000.0001)  cg2d: iter=   130 ; resid.=  1.84444025723861E-13
(PID.TID 0000.0001)  cg2d: iter=   131 ; resid.=  1.16685877214310E-13
(PID.TID 0000.0001)  cg2d: iter=   132 ; resid.=  7.65676182891970E-14
DEBUG_STATS_RL:    cg2d_x (SOLVE_FOR_PRESSURE)  min= -1.71055509397800E+01
DEBUG_STATS_RL:    cg2d_x (SOLVE_FOR_PRESSURE)  max=  9.42026328252685E+00
DEBUG_STATS_RL:    cg2d_x (SOLVE_FOR_PRESSURE) mean= -1.79017830223060E+00
DEBUG_STATS_RL:    cg2d_x (SOLVE_FOR_PRESSURE) S.D.=  6.95618969191090E+00
(PID.TID 0000.0001)      cg2d_init_res =   3.69514238717241E-01
(PID.TID 0000.0001)      cg2d_iters(min,last) =      -1     132
(PID.TID 0000.0001)      cg2d_last_res =   7.65676182891970E-14
(PID.TID 0000.0001) // =======================================================
(PID.TID 0000.0001) // Begin MONITOR dynamic field statistics
(PID.TID 0000.0001) // =======================================================
(PID.TID 0000.0001) %MON time_tsnumber                =                    47
(PID.TID 0000.0001) %MON time_secondsf                =   4.0608000000000E+06
(PID.TID 0000.0001) %MON dynstat_eta_max              =   9.6027148649610E-01
(PID.TID 0000.0001) %MON dynstat_eta_min              =  -1.7436851110887E+00
(PID.TID 0000.0001) %MON dynstat_eta_mean             =  -3.5503611299517E-03
(PID.TID 0000.0001) %MON dynstat_eta_sd               =   6.2251161631118E-01
(PID.TID 0000.0001) %MON dynstat_eta_del2             =   2.2351694606505E-03
(PID.TID 0000.0001) %MON dynstat_uvel_max             =   1.7572737488086E-01
(PID.TID 0000.0001) %MON dynstat_uvel_min             =  -1.4597665806204E-01
(PID.TID 0000.0001) %MON dynstat_uvel_mean            =   1.0673996594604E-03
(PID.TID 0000.0001) %MON dynstat_uvel_sd              =   1.5360772355386E-02
(PID.TID 0000.0001) %MON dynstat_uvel_del2            =   9.2015981486102E-05
(PID.TID 0000.0001) %MON dynstat_vvel_max             =   1.2571373717146E-01
(PID.TID 0000.0001) %MON dynstat_vvel_min             =  -1.0818294781144E-01
(PID.TID 0000.0001) %MON dynstat_vvel_mean            =   3.2061606496939E-05
(PID.TID 0000.0001) %MON dynstat_vvel_sd              =   9.0761778162305E-03
(PID.TID 0000.0001) %MON dynstat_vvel_del2            =   7.8384361343438E-05
(PID.TID 0000.0001) %MON dynstat_wvel_max             =   9.7947757230046E-05
(PID.TID 0000.0001) %MON dynstat_wvel_min             =  -1.1148287890338E-04
(PID.TID 0000.0001) %MON dynstat_wvel_mean            =  -8.1913485846893E-24
(PID.TID 0000.0001) %MON dynstat_wvel_sd              =   1.3789755193428E-05
(PID.TID 0000.0001) %MON dynstat_wvel_del2            =   1.3851396936925E-07
(PID.TID 0000.0001) %MON dynstat_theta_max            =   3.0339496464896E+01
(PID.TID 0000.0001) %MON dynstat_theta_min            =  -1.9894957107149E+00
(PID.TID 0000.0001) %MON dynstat_theta_mean           =   3.6323790279544E+00
(PID.TID 0000.0001) %MON dynstat_theta_sd             =   4.4207120841414E+00
(PID.TID 0000.0001) %MON dynstat_theta_del2           =   4.7484300730226E-03
(PID.TID 0000.0001) %MON dynstat_salt_max             =   3.7468448187323E+01
(PID.TID 0000.0001) %MON dynstat_salt_min             =   2.9848402837338E+01
(PID.TID 0000.0001) %MON dynstat_salt_mean            =   3.4727996779642E+01
(PID.TID 0000.0001) %MON dynstat_salt_sd              =   2.9638259731137E-01
(PID.TID 0000.0001) %MON dynstat_salt_del2            =   9.8595820643941E-04
(PID.TID 0000.0001) %MON dynstat_sst_max              =   3.0339496464896E+01
(PID.TID 0000.0001) %MON dynstat_sst_min              =  -1.9894957107149E+00
(PID.TID 0000.0001) %MON dynstat_sst_mean             =   1.8915302900153E+01
(PID.TID 0000.0001) %MON dynstat_sst_sd               =   9.0131017751625E+00
(PID.TID 0000.0001) %MON dynstat_sst_del2             =   2.7302849841720E-02
(PID.TID 0000.0001) %MON dynstat_sss_max              =   3.7443719943477E+01
(PID.TID 0000.0001) %MON dynstat_sss_min              =   2.9848402837338E+01
(PID.TID 0000.0001) %MON dynstat_sss_mean             =   3.4854125987641E+01
(PID.TID 0000.0001) %MON dynstat_sss_sd               =   9.7753130949483E-01
(PID.TID 0000.0001) %MON dynstat_sss_del2             =   7.8926325674259E-03
(PID.TID 0000.0001) %MON forcing_qnet_max             =   3.5565408833822E+02
(PID.TID 0000.0001) %MON forcing_qnet_min             =  -1.7253468983968E+02
(PID.TID 0000.0001) %MON forcing_qnet_mean            =  -1.3741911479317E+01
(PID.TID 0000.0001) %MON forcing_qnet_sd              =   7.8173808417116E+01
(PID.TID 0000.0001) %MON forcing_qnet_del2            =   9.4361086901404E-01
(PID.TID 0000.0001) %MON forcing_qsw_max              =   0.0000000000000E+00
(PID.TID 0000.0001) %MON forcing_qsw_min              =   0.0000000000000E+00
(PID.TID 0000.0001) %MON forcing_qsw_mean             =   0.0000000000000E+00
(PID.TID 0000.0001) %MON forcing_qsw_sd               =   0.0000000000000E+00
(PID.TID 0000.0001) %MON forcing_qsw_del2             =   0.0000000000000E+00
(PID.TID 0000.0001) %MON forcing_empmr_max            =   7.1917854664131E-05
(PID.TID 0000.0001) %MON forcing_empmr_min            =  -7.7443707032406E-05
(PID.TID 0000.0001) %MON forcing_empmr_mean           =   9.3031904903503E-07
(PID.TID 0000.0001) %MON forcing_empmr_sd             =   2.7892298564578E-05
(PID.TID 0000.0001) %MON forcing_empmr_del2           =   3.5549806318694E-07
(PID.TID 0000.0001) %MON forcing_fu_max               =   3.0595987737179E-01
(PID.TID 0000.0001) %MON forcing_fu_min               =  -2.2111698041360E-01
(PID.TID 0000.0001) %MON forcing_fu_mean              =   1.7724941206094E-02
(PID.TID 0000.0001) %MON forcing_fu_sd                =   9.3018818826085E-02
(PID.TID 0000.0001) %MON forcing_fu_del2              =   7.3973840042027E-04
(PID.TID 0000.0001) %MON forcing_fv_max               =   1.9589827271799E-01
(PID.TID 0000.0001) %MON forcing_fv_min               =  -1.9819321930408E-01
(PID.TID 0000.0001) %MON forcing_fv_mean              =  -7.2271532909298E-03
(PID.TID 0000.0001) %MON forcing_fv_sd                =   4.4730626914368E-02
(PID.TID 0000.0001) %MON forcing_fv_del2              =   5.3371170048375E-04
(PID.TID 0000.0001) %MON trAdv_CFL_u_max              =   4.6701140471421E-02
(PID.TID 0000.0001) %MON trAdv_CFL_v_max              =   2.8879369821245E-02
(PID.TID 0000.0001) %MON trAdv_CFL_w_max              =   3.2468560330361E-02
(PID.TID 0000.0001) %MON advcfl_uvel_max              =   4.6501553342922E-02
(PID.TID 0000.0001) %MON advcfl_vvel_max              =   2.4424162926470E-02
(PID.TID 0000.0001) %MON advcfl_wvel_max              =   3.5176040516750E-02
(PID.TID 0000.0001) %MON advcfl_W_hf_max              =   4.2211248620100E-02
(PID.TID 0000.0001) %MON pe_b_mean                    =   4.9589559023737E-04
(PID.TID 0000.0001) %MON ke_max                       =   1.5916565155510E-02
(PID.TID 0000.0001) %MON ke_mean                      =   1.4469789725640E-04
(PID.TID 0000.0001) %MON ke_vol                       =   1.3226782436723E+18
(PID.TID 0000.0001) %MON vort_r_min                   =  -4.9679575673578E-07
(PID.TID 0000.0001) %MON vort_r_max                   =   4.1115540094603E-07
(PID.TID 0000.0001) %MON vort_a_mean                  =  -2.5274806772701E-05
(PID.TID 0000.0001) %MON vort_a_sd                    =   7.3604462425031E-05
(PID.TID 0000.0001) %MON vort_p_mean                  =  -3.1845655012303E-05
(PID.TID 0000.0001) %MON vort_p_sd                    =   1.3162402223699E-04
(PID.TID 0000.0001) %MON surfExpan_theta_mean         =   1.4891571973654E-07
(PID.TID 0000.0001) %MON surfExpan_salt_mean          =   9.8489509965273E-08
(PID.TID 0000.0001) // =======================================================
(PID.TID 0000.0001) // End MONITOR dynamic field statistics
(PID.TID 0000.0001) // =======================================================
 EXTERNAL_FIELDS_LOAD,        47 : iP,iLd,i0,i1=    2    3    2    3 ; Wght=  0.9333333333  0.0666666667
 EXTERNAL_FIELDS_LOAD: (fu0,1),fu,fv= -1.4435E-02 -2.7199E-02 -1.5286E-02 -1.6498E-02
 EXTERNAL_FIELDS_LOAD: SST,SSS,Q,E-P= -5.0866E-01  3.4432E+01  2.3881E+02  8.4241E-06
DEBUG_STATS_RL:          Uvel (THERMODYNAMICS)  min= -1.45976658062044E-01
DEBUG_STATS_RL:          Uvel (THERMODYNAMICS)  max=  1.75727374880858E-01
DEBUG_STATS_RL:          Uvel (THERMODYNAMICS) mean=  4.12492295550029E-03
DEBUG_STATS_RL:          Uvel (THERMODYNAMICS) S.D.=  2.44396129455814E-02
DEBUG_STATS_RL:          Vvel (THERMODYNAMICS)  min= -1.08182947811444E-01
DEBUG_STATS_RL:          Vvel (THERMODYNAMICS)  max=  1.25713737171455E-01
DEBUG_STATS_RL:          Vvel (THERMODYNAMICS) mean=  1.30244750864855E-03
DEBUG_STATS_RL:          Vvel (THERMODYNAMICS) S.D.=  1.44356313956790E-02
DEBUG_STATS_RL:          Wvel (THERMODYNAMICS)  min= -1.11482878903383E-04
DEBUG_STATS_RL:          Wvel (THERMODYNAMICS)  max=  9.79477572300459E-05
DEBUG_STATS_RL:          Wvel (THERMODYNAMICS) mean= -5.32670223914717E-08
DEBUG_STATS_RL:          Wvel (THERMODYNAMICS) S.D.=  1.21331286415491E-05
DEBUG_STATS_RL:         Theta (THERMODYNAMICS)  min= -1.98766611977560E+00
DEBUG_STATS_RL:         Theta (THERMODYNAMICS)  max=  3.03545037345746E+01
DEBUG_STATS_RL:         Theta (THERMODYNAMICS) mean=  3.22757718636888E+00
DEBUG_STATS_RL:         Theta (THERMODYNAMICS) S.D.=  5.87003374075376E+00
DEBUG_STATS_RL:          Salt (THERMODYNAMICS)  min=  9.99999999999998E-03
DEBUG_STATS_RL:          Salt (THERMODYNAMICS)  max=  3.74690437712559E+01
DEBUG_STATS_RL:          Salt (THERMODYNAMICS) mean=  1.88549257483596E+01
DEBUG_STATS_RL:          Salt (THERMODYNAMICS) S.D.=  1.73004433764774E+01
DEBUG_STATS_RL:         GtNm1 (THERMODYNAMICS)  min= -4.87597887090009E-06
DEBUG_STATS_RL:         GtNm1 (THERMODYNAMICS)  max=  2.77857177845297E-06
DEBUG_STATS_RL:         GtNm1 (THERMODYNAMICS) mean=  7.58799909465428E-09
DEBUG_STATS_RL:         GtNm1 (THERMODYNAMICS) S.D.=  1.94132644653316E-07
DEBUG_STATS_RL:         GsNm1 (THERMODYNAMICS)  min= -4.58431718552374E-07
DEBUG_STATS_RL:         GsNm1 (THERMODYNAMICS)  max=  3.18814195109256E-07
DEBUG_STATS_RL:         GsNm1 (THERMODYNAMICS) mean=  1.51508414380956E-10
DEBUG_STATS_RL:         GsNm1 (THERMODYNAMICS) S.D.=  1.84497465901008E-08
DEBUG_STATS_RL:                EtaN (DYNAMICS)  min= -1.74368511108866E+00
DEBUG_STATS_RL:                EtaN (DYNAMICS)  max=  9.60271486496105E-01
DEBUG_STATS_RL:                EtaN (DYNAMICS) mean= -1.82485046098939E-01
DEBUG_STATS_RL:                EtaN (DYNAMICS) S.D.=  7.09091711713650E-01
DEBUG_STATS_RL:                Uvel (DYNAMICS)  min= -1.45976658062044E-01
DEBUG_STATS_RL:                Uvel (DYNAMICS)  max=  1.75727374880858E-01
DEBUG_STATS_RL:                Uvel (DYNAMICS) mean=  4.12492295550029E-03
DEBUG_STATS_RL:                Uvel (DYNAMICS) S.D.=  2.44396129455814E-02
DEBUG_STATS_RL:                Vvel (DYNAMICS)  min= -1.08182947811444E-01
DEBUG_STATS_RL:                Vvel (DYNAMICS)  max=  1.25713737171455E-01
DEBUG_STATS_RL:                Vvel (DYNAMICS) mean=  1.30244750864855E-03
DEBUG_STATS_RL:                Vvel (DYNAMICS) S.D.=  1.44356313956790E-02
DEBUG_STATS_RL:                Wvel (DYNAMICS)  min= -1.11482878903383E-04
DEBUG_STATS_RL:                Wvel (DYNAMICS)  max=  9.79477572300459E-05
DEBUG_STATS_RL:                Wvel (DYNAMICS) mean= -5.32670223914717E-08
DEBUG_STATS_RL:                Wvel (DYNAMICS) S.D.=  1.21331286415491E-05
DEBUG_STATS_RL:               Theta (DYNAMICS)  min= -1.98766611977560E+00
DEBUG_STATS_RL:               Theta (DYNAMICS)  max=  3.03545037345746E+01
DEBUG_STATS_RL:               Theta (DYNAMICS) mean=  3.22757718636888E+00
DEBUG_STATS_RL:               Theta (DYNAMICS) S.D.=  5.87003374075376E+00
DEBUG_STATS_RL:                Salt (DYNAMICS)  min=  9.99999999999998E-03
DEBUG_STATS_RL:                Salt (DYNAMICS)  max=  3.74690437712559E+01
DEBUG_STATS_RL:                Salt (DYNAMICS) mean=  1.88549257483596E+01
DEBUG_STATS_RL:                Salt (DYNAMICS) S.D.=  1.73004433764774E+01
DEBUG_STATS_RL:                  Gu (DYNAMICS)  min= -1.44158916515700E-01
DEBUG_STATS_RL:                  Gu (DYNAMICS)  max=  1.84227667319322E-01
DEBUG_STATS_RL:                  Gu (DYNAMICS) mean=  4.09539211246973E-03
DEBUG_STATS_RL:                  Gu (DYNAMICS) S.D.=  2.45698715441401E-02
DEBUG_STATS_RL:                  Gv (DYNAMICS)  min= -1.07189487412047E-01
DEBUG_STATS_RL:                  Gv (DYNAMICS)  max=  1.30041598635552E-01
DEBUG_STATS_RL:                  Gv (DYNAMICS) mean=  3.69571102245896E-03
DEBUG_STATS_RL:                  Gv (DYNAMICS) S.D.=  1.56248723868915E-02
DEBUG_STATS_RL:               GuNm1 (DYNAMICS)  min= -9.29861883343573E-06
DEBUG_STATS_RL:               GuNm1 (DYNAMICS)  max=  8.76732140422202E-06
DEBUG_STATS_RL:               GuNm1 (DYNAMICS) mean= -7.48649072078502E-09
DEBUG_STATS_RL:               GuNm1 (DYNAMICS) S.D.=  1.17503178572786E-06
DEBUG_STATS_RL:               GvNm1 (DYNAMICS)  min= -9.51329333867142E-06
DEBUG_STATS_RL:               GvNm1 (DYNAMICS)  max=  1.64386191744965E-05
DEBUG_STATS_RL:               GvNm1 (DYNAMICS) mean=  7.45317008940996E-07
DEBUG_STATS_RL:               GvNm1 (DYNAMICS) S.D.=  2.59514928233146E-06
DEBUG_STATS_RL:               GtNm1 (DYNAMICS)  min= -4.87597887090009E-06
DEBUG_STATS_RL:               GtNm1 (DYNAMICS)  max=  2.77857177845297E-06
DEBUG_STATS_RL:               GtNm1 (DYNAMICS) mean=  7.58799909465428E-09
DEBUG_STATS_RL:               GtNm1 (DYNAMICS) S.D.=  1.94132644653316E-07
DEBUG_STATS_RL:               GsNm1 (DYNAMICS)  min= -4.58431718552374E-07
DEBUG_STATS_RL:               GsNm1 (DYNAMICS)  max=  3.18814195109256E-07
DEBUG_STATS_RL:               GsNm1 (DYNAMICS) mean=  1.51508414380956E-10
DEBUG_STATS_RL:               GsNm1 (DYNAMICS) S.D.=  1.84497465901008E-08
DEBUG_STATS_RL:    cg2d_b (SOLVE_FOR_PRESSURE)  min= -2.06924882771715E+04
DEBUG_STATS_RL:    cg2d_b (SOLVE_FOR_PRESSURE)  max=  2.22892950339470E+04
DEBUG_STATS_RL:    cg2d_b (SOLVE_FOR_PRESSURE) mean=  3.47614839456244E+00
DEBUG_STATS_RL:    cg2d_b (SOLVE_FOR_PRESSURE) S.D.=  3.67733548972190E+03
 cg2d: Sum(rhs),rhsMax =   3.61038046342604E-01  1.46402057576126E+00
(PID.TID 0000.0001)  cg2d: iter=     1 ; resid.=  1.26959411834821E-01
(PID.TID 0000.0001)  cg2d: iter=     2 ; resid.=  9.91318185012292E-02
(PID.TID 0000.0001)  cg2d: iter=     3 ; resid.=  9.89806012159069E-02
(PID.TID 0000.0001)  cg2d: iter=     4 ; resid.=  8.11466835032992E-02
(PID.TID 0000.0001)  cg2d: iter=     5 ; resid.=  7.32167249872355E-02
(PID.TID 0000.0001)  cg2d: iter=     6 ; resid.=  6.79311055538556E-02
(PID.TID 0000.0001)  cg2d: iter=     7 ; resid.=  5.82378963385343E-02
(PID.TID 0000.0001)  cg2d: iter=     8 ; resid.=  4.70662959043981E-02
(PID.TID 0000.0001)  cg2d: iter=     9 ; resid.=  3.66547200020488E-02
(PID.TID 0000.0001)  cg2d: iter=    10 ; resid.=  2.96154427645736E-02
(PID.TID 0000.0001)  cg2d: iter=    11 ; resid.=  2.57211038456794E-02
(PID.TID 0000.0001)  cg2d: iter=    12 ; resid.=  2.21369641812283E-02
(PID.TID 0000.0001)  cg2d: iter=    13 ; resid.=  1.78389117888801E-02
(PID.TID 0000.0001)  cg2d: iter=    14 ; resid.=  1.45050162844837E-02
(PID.TID 0000.0001)  cg2d: iter=    15 ; resid.=  1.11871275356741E-02
(PID.TID 0000.0001)  cg2d: iter=    16 ; resid.=  9.44070563859408E-03
(PID.TID 0000.0001)  cg2d: iter=    17 ; resid.=  8.62992570282439E-03
(PID.TID 0000.0001)  cg2d: iter=    18 ; resid.=  7.40633316467450E-03
(PID.TID 0000.0001)  cg2d: iter=    19 ; resid.=  6.32656499119301E-03
(PID.TID 0000.0001)  cg2d: iter=    20 ; resid.=  5.01242085863614E-03
(PID.TID 0000.0001)  cg2d: iter=    21 ; resid.=  4.24398621053891E-03
(PID.TID 0000.0001)  cg2d: iter=    22 ; resid.=  3.75865167750868E-03
(PID.TID 0000.0001)  cg2d: iter=    23 ; resid.=  3.13052057763595E-03
(PID.TID 0000.0001)  cg2d: iter=    24 ; resid.=  2.54969403709463E-03
(PID.TID 0000.0001)  cg2d: iter=    25 ; resid.=  2.06068015766639E-03
(PID.TID 0000.0001)  cg2d: iter=    26 ; resid.=  1.60375385706842E-03
(PID.TID 0000.0001)  cg2d: iter=    27 ; resid.=  1.42846101616532E-03
(PID.TID 0000.0001)  cg2d: iter=    28 ; resid.=  1.18645787861766E-03
(PID.TID 0000.0001)  cg2d: iter=    29 ; resid.=  9.42170592396655E-04
(PID.TID 0000.0001)  cg2d: iter=    30 ; resid.=  7.84768622091301E-04
(PID.TID 0000.0001)  cg2d: iter=    31 ; resid.=  6.93627020118448E-04
(PID.TID 0000.0001)  cg2d: iter=    32 ; resid.=  5.28922225664602E-04
(PID.TID 0000.0001)  cg2d: iter=    33 ; resid.=  4.13953314647803E-04
(PID.TID 0000.0001)  cg2d: iter=    34 ; resid.=  3.50851661140258E-04
(PID.TID 0000.0001)  cg2d: iter=    35 ; resid.=  3.04791381858320E-04
(PID.TID 0000.0001)  cg2d: iter=    36 ; resid.=  2.75139420445751E-04
(PID.TID 0000.0001)  cg2d: iter=    37 ; resid.=  2.32832470573375E-04
(PID.TID 0000.0001)  cg2d: iter=    38 ; resid.=  1.95352149689212E-04
(PID.TID 0000.0001)  cg2d: iter=    39 ; resid.=  1.63516426320585E-04
(PID.TID 0000.0001)  cg2d: iter=    40 ; resid.=  1.38397480009567E-04
(PID.TID 0000.0001)  cg2d: iter=    41 ; resid.=  1.16671206553232E-04
(PID.TID 0000.0001)  cg2d: iter=    42 ; resid.=  1.02860683238443E-04
(PID.TID 0000.0001)  cg2d: iter=    43 ; resid.=  9.14951111370282E-05
(PID.TID 0000.0001)  cg2d: iter=    44 ; resid.=  7.97893059456590E-05
(PID.TID 0000.0001)  cg2d: iter=    45 ; resid.=  6.62833952643313E-05
(PID.TID 0000.0001)  cg2d: iter=    46 ; resid.=  5.19937212529508E-05
(PID.TID 0000.0001)  cg2d: iter=    47 ; resid.=  4.24747379478933E-05
(PID.TID 0000.0001)  cg2d: iter=    48 ; resid.=  3.33734700565534E-05
(PID.TID 0000.0001)  cg2d: iter=    49 ; resid.=  2.59578527143963E-05
(PID.TID 0000.0001)  cg2d: iter=    50 ; resid.=  2.13848029881211E-05
(PID.TID 0000.0001)  cg2d: iter=    51 ; resid.=  1.74193746525195E-05
(PID.TID 0000.0001)  cg2d: iter=    52 ; resid.=  1.60575877689032E-05
(PID.TID 0000.0001)  cg2d: iter=    53 ; resid.=  1.34999073575379E-05
(PID.TID 0000.0001)  cg2d: iter=    54 ; resid.=  1.14834974503853E-05
(PID.TID 0000.0001)  cg2d: iter=    55 ; resid.=  1.02879031883855E-05
(PID.TID 0000.0001)  cg2d: iter=    56 ; resid.=  9.04269620863884E-06
(PID.TID 0000.0001)  cg2d: iter=    57 ; resid.=  7.35326212794296E-06
(PID.TID 0000.0001)  cg2d: iter=    58 ; resid.=  5.81786839829960E-06
(PID.TID 0000.0001)  cg2d: iter=    59 ; resid.=  4.48296963126207E-06
(PID.TID 0000.0001)  cg2d: iter=    60 ; resid.=  3.27467593769122E-06
(PID.TID 0000.0001)  cg2d: iter=    61 ; resid.=  2.65199060750497E-06
(PID.TID 0000.0001)  cg2d: iter=    62 ; resid.=  2.21919581896302E-06
(PID.TID 0000.0001)  cg2d: iter=    63 ; resid.=  1.81485922987292E-06
(PID.TID 0000.0001)  cg2d: iter=    64 ; resid.=  1.54897851817286E-06
(PID.TID 0000.0001)  cg2d: iter=    65 ; resid.=  1.20176842560279E-06
(PID.TID 0000.0001)  cg2d: iter=    66 ; resid.=  9.77230026056653E-07
(PID.TID 0000.0001)  cg2d: iter=    67 ; resid.=  8.52627654653239E-07
(PID.TID 0000.0001)  cg2d: iter=    68 ; resid.=  7.80339489042774E-07
(PID.TID 0000.0001)  cg2d: iter=    69 ; resid.=  6.39933505444845E-07
(PID.TID 0000.0001)  cg2d: iter=    70 ; resid.=  5.26731366466281E-07
(PID.TID 0000.0001)  cg2d: iter=    71 ; resid.=  4.52254680902566E-07
(PID.TID 0000.0001)  cg2d: iter=    72 ; resid.=  3.67506091034168E-07
(PID.TID 0000.0001)  cg2d: iter=    73 ; resid.=  3.10126035616392E-07
(PID.TID 0000.0001)  cg2d: iter=    74 ; resid.=  2.61666543767784E-07
(PID.TID 0000.0001)  cg2d: iter=    75 ; resid.=  2.08813256555592E-07
(PID.TID 0000.0001)  cg2d: iter=    76 ; resid.=  1.64292766783063E-07
(PID.TID 0000.0001)  cg2d: iter=    77 ; resid.=  1.43348227034252E-07
(PID.TID 0000.0001)  cg2d: iter=    78 ; resid.=  1.12235606290019E-07
(PID.TID 0000.0001)  cg2d: iter=    79 ; resid.=  9.19782453559756E-08
(PID.TID 0000.0001)  cg2d: iter=    80 ; resid.=  7.32973294614434E-08
(PID.TID 0000.0001)  cg2d: iter=    81 ; resid.=  5.71726457197936E-08
(PID.TID 0000.0001)  cg2d: iter=    82 ; resid.=  4.76042171378490E-08
(PID.TID 0000.0001)  cg2d: iter=    83 ; resid.=  3.78277413197208E-08
(PID.TID 0000.0001)  cg2d: iter=    84 ; resid.=  2.71052016173604E-08
(PID.TID 0000.0001)  cg2d: iter=    85 ; resid.=  2.05522861585953E-08
(PID.TID 0000.0001)  cg2d: iter=    86 ; resid.=  1.57983843917348E-08
(PID.TID 0000.0001)  cg2d: iter=    87 ; resid.=  1.17519935308565E-08
(PID.TID 0000.0001)  cg2d: iter=    88 ; resid.=  9.14232983592429E-09
(PID.TID 0000.0001)  cg2d: iter=    89 ; resid.=  8.14613409645863E-09
(PID.TID 0000.0001)  cg2d: iter=    90 ; resid.=  6.18243517540103E-09
(PID.TID 0000.0001)  cg2d: iter=    91 ; resid.=  4.77405887641542E-09
(PID.TID 0000.0001)  cg2d: iter=    92 ; resid.=  3.71273440812150E-09
(PID.TID 0000.0001)  cg2d: iter=    93 ; resid.=  2.77266265454157E-09
(PID.TID 0000.0001)  cg2d: iter=    94 ; resid.=  2.12310250978244E-09
(PID.TID 0000.0001)  cg2d: iter=    95 ; resid.=  1.75530763739740E-09
(PID.TID 0000.0001)  cg2d: iter=    96 ; resid.=  1.32644178540167E-09
(PID.TID 0000.0001)  cg2d: iter=    97 ; resid.=  1.03167391056715E-09
(PID.TID 0000.0001)  cg2d: iter=    98 ; resid.=  8.30219404131321E-10
(PID.TID 0000.0001)  cg2d: iter=    99 ; resid.=  6.73180668777367E-10
(PID.TID 0000.0001)  cg2d: iter=   100 ; resid.=  6.22872884706713E-10
(PID.TID 0000.0001)  cg2d: iter=   101 ; resid.=  5.02232358073732E-10
(PID.TID 0000.0001)  cg2d: iter=   102 ; resid.=  4.06325762654393E-10
(PID.TID 0000.0001)  cg2d: iter=   103 ; resid.=  3.35170693953647E-10
(PID.TID 0000.0001)  cg2d: iter=   104 ; resid.=  2.93305575978988E-10
(PID.TID 0000.0001)  cg2d: iter=   105 ; resid.=  2.34199669831868E-10
(PID.TID 0000.0001)  cg2d: iter=   106 ; resid.=  1.98274134609374E-10
(PID.TID 0000.0001)  cg2d: iter=   107 ; resid.=  1.60891924297735E-10
(PID.TID 0000.0001)  cg2d: iter=   108 ; resid.=  1.24371290361990E-10
(PID.TID 0000.0001)  cg2d: iter=   109 ; resid.=  9.37392795246867E-11
(PID.TID 0000.0001)  cg2d: iter=   110 ; resid.=  7.07843521404601E-11
(PID.TID 0000.0001)  cg2d: iter=   111 ; resid.=  5.36300195705722E-11
(PID.TID 0000.0001)  cg2d: iter=   112 ; resid.=  4.01616341798492E-11
(PID.TID 0000.0001)  cg2d: iter=   113 ; resid.=  2.72826351423390E-11
(PID.TID 0000.0001)  cg2d: iter=   114 ; resid.=  2.02691123270279E-11
(PID.TID 0000.0001)  cg2d: iter=   115 ; resid.=  1.56187722973449E-11
(PID.TID 0000.0001)  cg2d: iter=   116 ; resid.=  1.07969058847954E-11
(PID.TID 0000.0001)  cg2d: iter=   117 ; resid.=  8.18053222337046E-12
(PID.TID 0000.0001)  cg2d: iter=   118 ; resid.=  6.06448265990300E-12
(PID.TID 0000.0001)  cg2d: iter=   119 ; resid.=  4.86404468880050E-12
(PID.TID 0000.0001)  cg2d: iter=   120 ; resid.=  3.79003938371712E-12
(PID.TID 0000.0001)  cg2d: iter=   121 ; resid.=  2.84406343713856E-12
(PID.TID 0000.0001)  cg2d: iter=   122 ; resid.=  2.48639137206672E-12
(PID.TID 0000.0001)  cg2d: iter=   123 ; resid.=  2.11630263770061E-12
(PID.TID 0000.0001)  cg2d: iter=   124 ; resid.=  1.56273055196101E-12
(PID.TID 0000.0001)  cg2d: iter=   125 ; resid.=  1.15569490168602E-12
(PID.TID 0000.0001)  cg2d: iter=   126 ; resid.=  8.55505769349545E-13
(PID.TID 0000.0001)  cg2d: iter=   127 ; resid.=  5.72230127555302E-13
(PID.TID 0000.0001)  cg2d: iter=   128 ; resid.=  3.72056628296781E-13
(PID.TID 0000.0001)  cg2d: iter=   129 ; resid.=  2.64957794188614E-13
(PID.TID 0000.0001)  cg2d: iter=   130 ; resid.=  1.80423602657399E-13
(PID.TID 0000.0001)  cg2d: iter=   131 ; resid.=  1.12887399881537E-13
(PID.TID 0000.0001)  cg2d: iter=   132 ; resid.=  7.26157969204518E-14
DEBUG_STATS_RL:    cg2d_x (SOLVE_FOR_PRESSURE)  min= -1.71590962456186E+01
DEBUG_STATS_RL:    cg2d_x (SOLVE_FOR_PRESSURE)  max=  9.23049720761805E+00
DEBUG_STATS_RL:    cg2d_x (SOLVE_FOR_PRESSURE) mean= -1.78909472981997E+00
DEBUG_STATS_RL:    cg2d_x (SOLVE_FOR_PRESSURE) S.D.=  6.91452218634754E+00
(PID.TID 0000.0001)      cg2d_init_res =   3.55488406026498E-01
(PID.TID 0000.0001)      cg2d_iters(min,last) =      -1     132
(PID.TID 0000.0001)      cg2d_last_res =   7.26157969204518E-14
(PID.TID 0000.0001) // =======================================================
(PID.TID 0000.0001) // Begin MONITOR dynamic field statistics
(PID.TID 0000.0001) // =======================================================
(PID.TID 0000.0001) %MON time_tsnumber                =                    48
(PID.TID 0000.0001) %MON time_secondsf                =   4.1472000000000E+06
(PID.TID 0000.0001) %MON dynstat_eta_max              =   9.4092734022620E-01
(PID.TID 0000.0001) %MON dynstat_eta_min              =  -1.7491433481772E+00
(PID.TID 0000.0001) %MON dynstat_eta_mean             =  -3.6269298215542E-03
(PID.TID 0000.0001) %MON dynstat_eta_sd               =   6.1697234619542E-01
(PID.TID 0000.0001) %MON dynstat_eta_del2             =   2.2474919238670E-03
(PID.TID 0000.0001) %MON dynstat_uvel_max             =   1.7958042811060E-01
(PID.TID 0000.0001) %MON dynstat_uvel_min             =  -1.4388575327026E-01
(PID.TID 0000.0001) %MON dynstat_uvel_mean            =   1.1087983572808E-03
(PID.TID 0000.0001) %MON dynstat_uvel_sd              =   1.5257219784222E-02
(PID.TID 0000.0001) %MON dynstat_uvel_del2            =   9.1758091213877E-05
(PID.TID 0000.0001) %MON dynstat_vvel_max             =   1.2910283145148E-01
(PID.TID 0000.0001) %MON dynstat_vvel_min             =  -1.0703815598103E-01
(PID.TID 0000.0001) %MON dynstat_vvel_mean            =   2.9828108878992E-05
(PID.TID 0000.0001) %MON dynstat_vvel_sd              =   9.0289830531716E-03
(PID.TID 0000.0001) %MON dynstat_vvel_del2            =   7.7980557907459E-05
(PID.TID 0000.0001) %MON dynstat_wvel_max             =   1.1530881691741E-04
(PID.TID 0000.0001) %MON dynstat_wvel_min             =  -1.1200770805554E-04
(PID.TID 0000.0001) %MON dynstat_wvel_mean            =  -3.2182509785986E-22
(PID.TID 0000.0001) %MON dynstat_wvel_sd              =   1.3592780950398E-05
(PID.TID 0000.0001) %MON dynstat_wvel_del2            =   1.3700694228972E-07
(PID.TID 0000.0001) %MON dynstat_theta_max            =   3.0354503734575E+01
(PID.TID 0000.0001) %MON dynstat_theta_min            =  -1.9876661197756E+00
(PID.TID 0000.0001) %MON dynstat_theta_mean           =   3.6324519228848E+00
(PID.TID 0000.0001) %MON dynstat_theta_sd             =   4.4209465981274E+00
(PID.TID 0000.0001) %MON dynstat_theta_del2           =   4.7579748100039E-03
(PID.TID 0000.0001) %MON dynstat_salt_max             =   3.7469043771256E+01
(PID.TID 0000.0001) %MON dynstat_salt_min             =   2.9850918355585E+01
(PID.TID 0000.0001) %MON dynstat_salt_mean            =   3.4727995342258E+01
(PID.TID 0000.0001) %MON dynstat_salt_sd              =   2.9638614325998E-01
(PID.TID 0000.0001) %MON dynstat_salt_del2            =   9.8640335556084E-04
(PID.TID 0000.0001) %MON dynstat_sst_max              =   3.0354503734575E+01
(PID.TID 0000.0001) %MON dynstat_sst_min              =  -1.9876661197756E+00
(PID.TID 0000.0001) %MON dynstat_sst_mean             =   1.8923571008191E+01
(PID.TID 0000.0001) %MON dynstat_sst_sd               =   9.0153880930776E+00
(PID.TID 0000.0001) %MON dynstat_sst_del2             =   2.7360591485294E-02
(PID.TID 0000.0001) %MON dynstat_sss_max              =   3.7444839505225E+01
(PID.TID 0000.0001) %MON dynstat_sss_min              =   2.9850918355585E+01
(PID.TID 0000.0001) %MON dynstat_sss_mean             =   3.4853998330024E+01
(PID.TID 0000.0001) %MON dynstat_sss_sd               =   9.7767287148950E-01
(PID.TID 0000.0001) %MON dynstat_sss_del2             =   7.8995717530748E-03
(PID.TID 0000.0001) %MON forcing_qnet_max             =   3.5285593668620E+02
(PID.TID 0000.0001) %MON forcing_qnet_min             =  -1.7223541056315E+02
(PID.TID 0000.0001) %MON forcing_qnet_mean            =  -1.3518571979690E+01
(PID.TID 0000.0001) %MON forcing_qnet_sd              =   7.6758869987334E+01
(PID.TID 0000.0001) %MON forcing_qnet_del2            =   9.3812538915250E-01
(PID.TID 0000.0001) %MON forcing_qsw_max              =   0.0000000000000E+00
(PID.TID 0000.0001) %MON forcing_qsw_min              =   0.0000000000000E+00
(PID.TID 0000.0001) %MON forcing_qsw_mean             =   0.0000000000000E+00
(PID.TID 0000.0001) %MON forcing_qsw_sd               =   0.0000000000000E+00
(PID.TID 0000.0001) %MON forcing_qsw_del2             =   0.0000000000000E+00
(PID.TID 0000.0001) %MON forcing_empmr_max            =   7.1084162319342E-05
(PID.TID 0000.0001) %MON forcing_empmr_min            =  -7.6342130010213E-05
(PID.TID 0000.0001) %MON forcing_empmr_mean           =   9.1722911816067E-07
(PID.TID 0000.0001) %MON forcing_empmr_sd             =   2.7805085834175E-05
(PID.TID 0000.0001) %MON forcing_empmr_del2           =   3.5498793147611E-07
(PID.TID 0000.0001) %MON forcing_fu_max               =   3.0728422999382E-01
(PID.TID 0000.0001) %MON forcing_fu_min               =  -2.2650160988172E-01
(PID.TID 0000.0001) %MON forcing_fu_mean              =   1.7819140795553E-02
(PID.TID 0000.0001) %MON forcing_fu_sd                =   9.3044945573839E-02
(PID.TID 0000.0001) %MON forcing_fu_del2              =   7.3292093358534E-04
(PID.TID 0000.0001) %MON forcing_fv_max               =   1.9021158044537E-01
(PID.TID 0000.0001) %MON forcing_fv_min               =  -1.9670718312263E-01
(PID.TID 0000.0001) %MON forcing_fv_mean              =  -7.2375816408993E-03
(PID.TID 0000.0001) %MON forcing_fv_sd                =   4.4424183443592E-02
(PID.TID 0000.0001) %MON forcing_fv_del2              =   5.2624207752019E-04
(PID.TID 0000.0001) %MON trAdv_CFL_u_max              =   4.6510998140990E-02
(PID.TID 0000.0001) %MON trAdv_CFL_v_max              =   2.9174944650243E-02
(PID.TID 0000.0001) %MON trAdv_CFL_w_max              =   3.3214209438801E-02
(PID.TID 0000.0001) %MON advcfl_uvel_max              =   4.6948583724142E-02
(PID.TID 0000.0001) %MON advcfl_vvel_max              =   2.5082609590540E-02
(PID.TID 0000.0001) %MON advcfl_wvel_max              =   3.5267006824168E-02
(PID.TID 0000.0001) %MON advcfl_W_hf_max              =   4.2824222572204E-02
(PID.TID 0000.0001) %MON pe_b_mean                    =   4.8711062813499E-04
(PID.TID 0000.0001) %MON ke_max                       =   1.6521692325776E-02
(PID.TID 0000.0001) %MON ke_mean                      =   1.4291471800656E-04
(PID.TID 0000.0001) %MON ke_vol                       =   1.3226782436723E+18
(PID.TID 0000.0001) %MON vort_r_min                   =  -4.9727572886369E-07
(PID.TID 0000.0001) %MON vort_r_max                   =   4.0475269079276E-07
(PID.TID 0000.0001) %MON vort_a_mean                  =  -2.5274806815430E-05
(PID.TID 0000.0001) %MON vort_a_sd                    =   7.3604463943881E-05
(PID.TID 0000.0001) %MON vort_p_mean                  =  -3.1845655066139E-05
(PID.TID 0000.0001) %MON vort_p_sd                    =   1.3162405630402E-04
(PID.TID 0000.0001) %MON surfExpan_theta_mean         =   1.1905600039099E-07
(PID.TID 0000.0001) %MON surfExpan_salt_mean          =   1.0934692770247E-07
(PID.TID 0000.0001) // =======================================================
(PID.TID 0000.0001) // End MONITOR dynamic field statistics
(PID.TID 0000.0001) // =======================================================
 EXTERNAL_FIELDS_LOAD,        48 : iP,iLd,i0,i1=    2    3    2    3 ; Wght=  0.9000000000  0.1000000000
 EXTERNAL_FIELDS_LOAD: (fu0,1),fu,fv= -1.4435E-02 -2.7199E-02 -1.5711E-02 -1.5930E-02
 EXTERNAL_FIELDS_LOAD: SST,SSS,Q,E-P= -4.9706E-01  3.4437E+01  2.3797E+02  8.4476E-06
DEBUG_STATS_RL:          Uvel (THERMODYNAMICS)  min= -1.43885753270261E-01
DEBUG_STATS_RL:          Uvel (THERMODYNAMICS)  max=  1.79580428110601E-01
DEBUG_STATS_RL:          Uvel (THERMODYNAMICS) mean=  4.25149730209142E-03
DEBUG_STATS_RL:          Uvel (THERMODYNAMICS) S.D.=  2.42103453101378E-02
DEBUG_STATS_RL:          Vvel (THERMODYNAMICS)  min= -1.07038155981032E-01
DEBUG_STATS_RL:          Vvel (THERMODYNAMICS)  max=  1.29102831451477E-01
DEBUG_STATS_RL:          Vvel (THERMODYNAMICS) mean=  1.42106811700681E-03
DEBUG_STATS_RL:          Vvel (THERMODYNAMICS) S.D.=  1.44388856715499E-02
DEBUG_STATS_RL:          Wvel (THERMODYNAMICS)  min= -1.12007708055536E-04
DEBUG_STATS_RL:          Wvel (THERMODYNAMICS)  max=  1.15308816917415E-04
DEBUG_STATS_RL:          Wvel (THERMODYNAMICS) mean= -1.89965569303256E-08
DEBUG_STATS_RL:          Wvel (THERMODYNAMICS) S.D.=  1.19962765151757E-05
DEBUG_STATS_RL:         Theta (THERMODYNAMICS)  min= -1.98585298912432E+00
DEBUG_STATS_RL:         Theta (THERMODYNAMICS)  max=  3.03678840551392E+01
DEBUG_STATS_RL:         Theta (THERMODYNAMICS) mean=  3.22785284872754E+00
DEBUG_STATS_RL:         Theta (THERMODYNAMICS) S.D.=  5.87077491160205E+00
DEBUG_STATS_RL:          Salt (THERMODYNAMICS)  min=  9.99999999999998E-03
DEBUG_STATS_RL:          Salt (THERMODYNAMICS)  max=  3.74696973655237E+01
DEBUG_STATS_RL:          Salt (THERMODYNAMICS) mean=  1.88549322460999E+01
DEBUG_STATS_RL:          Salt (THERMODYNAMICS) S.D.=  1.73004496188669E+01
DEBUG_STATS_RL:         GtNm1 (THERMODYNAMICS)  min= -4.96224038908265E-06
DEBUG_STATS_RL:         GtNm1 (THERMODYNAMICS)  max=  2.80869727710497E-06
DEBUG_STATS_RL:         GtNm1 (THERMODYNAMICS) mean=  6.62413888813981E-09
DEBUG_STATS_RL:         GtNm1 (THERMODYNAMICS) S.D.=  1.93333732476107E-07
DEBUG_STATS_RL:         GsNm1 (THERMODYNAMICS)  min= -4.67719190660156E-07
DEBUG_STATS_RL:         GsNm1 (THERMODYNAMICS)  max=  3.22938924951158E-07
DEBUG_STATS_RL:         GsNm1 (THERMODYNAMICS) mean=  1.04019656274789E-10
DEBUG_STATS_RL:         GsNm1 (THERMODYNAMICS) S.D.=  1.85402305089502E-08
DEBUG_STATS_RL:                EtaN (DYNAMICS)  min= -1.74914334817722E+00
DEBUG_STATS_RL:                EtaN (DYNAMICS)  max=  9.40927340226202E-01
DEBUG_STATS_RL:                EtaN (DYNAMICS) mean= -1.82374590195716E-01
DEBUG_STATS_RL:                EtaN (DYNAMICS) S.D.=  7.04844259566520E-01
DEBUG_STATS_RL:                Uvel (DYNAMICS)  min= -1.43885753270261E-01
DEBUG_STATS_RL:                Uvel (DYNAMICS)  max=  1.79580428110601E-01
DEBUG_STATS_RL:                Uvel (DYNAMICS) mean=  4.25149730209142E-03
DEBUG_STATS_RL:                Uvel (DYNAMICS) S.D.=  2.42103453101378E-02
DEBUG_STATS_RL:                Vvel (DYNAMICS)  min= -1.07038155981032E-01
DEBUG_STATS_RL:                Vvel (DYNAMICS)  max=  1.29102831451477E-01
DEBUG_STATS_RL:                Vvel (DYNAMICS) mean=  1.42106811700681E-03
DEBUG_STATS_RL:                Vvel (DYNAMICS) S.D.=  1.44388856715499E-02
DEBUG_STATS_RL:                Wvel (DYNAMICS)  min= -1.12007708055536E-04
DEBUG_STATS_RL:                Wvel (DYNAMICS)  max=  1.15308816917415E-04
DEBUG_STATS_RL:                Wvel (DYNAMICS) mean= -1.89965569303256E-08
DEBUG_STATS_RL:                Wvel (DYNAMICS) S.D.=  1.19962765151757E-05
DEBUG_STATS_RL:               Theta (DYNAMICS)  min= -1.98585298912432E+00
DEBUG_STATS_RL:               Theta (DYNAMICS)  max=  3.03678840551392E+01
DEBUG_STATS_RL:               Theta (DYNAMICS) mean=  3.22785284872754E+00
DEBUG_STATS_RL:               Theta (DYNAMICS) S.D.=  5.87077491160205E+00
DEBUG_STATS_RL:                Salt (DYNAMICS)  min=  9.99999999999998E-03
DEBUG_STATS_RL:                Salt (DYNAMICS)  max=  3.74696973655237E+01
DEBUG_STATS_RL:                Salt (DYNAMICS) mean=  1.88549322460999E+01
DEBUG_STATS_RL:                Salt (DYNAMICS) S.D.=  1.73004496188669E+01
DEBUG_STATS_RL:                  Gu (DYNAMICS)  min= -1.41841382278083E-01
DEBUG_STATS_RL:                  Gu (DYNAMICS)  max=  1.88183363818714E-01
DEBUG_STATS_RL:                  Gu (DYNAMICS) mean=  4.23351920988256E-03
DEBUG_STATS_RL:                  Gu (DYNAMICS) S.D.=  2.42825023653532E-02
DEBUG_STATS_RL:                  Gv (DYNAMICS)  min= -1.06017337269715E-01
DEBUG_STATS_RL:                  Gv (DYNAMICS)  max=  1.33172018106459E-01
DEBUG_STATS_RL:                  Gv (DYNAMICS) mean=  3.79692956797179E-03
DEBUG_STATS_RL:                  Gv (DYNAMICS) S.D.=  1.57450788134300E-02
DEBUG_STATS_RL:               GuNm1 (DYNAMICS)  min= -9.36234383525389E-06
DEBUG_STATS_RL:               GuNm1 (DYNAMICS)  max=  8.82672959074488E-06
DEBUG_STATS_RL:               GuNm1 (DYNAMICS) mean= -5.94642473376095E-09
DEBUG_STATS_RL:               GuNm1 (DYNAMICS) S.D.=  1.17701256966772E-06
DEBUG_STATS_RL:               GvNm1 (DYNAMICS)  min= -9.46605282913027E-06
DEBUG_STATS_RL:               GvNm1 (DYNAMICS)  max=  1.64440980775625E-05
DEBUG_STATS_RL:               GvNm1 (DYNAMICS) mean=  7.45230671289329E-07
DEBUG_STATS_RL:               GvNm1 (DYNAMICS) S.D.=  2.59862336139453E-06
DEBUG_STATS_RL:               GtNm1 (DYNAMICS)  min= -4.96224038908265E-06
DEBUG_STATS_RL:               GtNm1 (DYNAMICS)  max=  2.80869727710497E-06
DEBUG_STATS_RL:               GtNm1 (DYNAMICS) mean=  6.62413888813981E-09
DEBUG_STATS_RL:               GtNm1 (DYNAMICS) S.D.=  1.93333732476107E-07
DEBUG_STATS_RL:               GsNm1 (DYNAMICS)  min= -4.67719190660156E-07
DEBUG_STATS_RL:               GsNm1 (DYNAMICS)  max=  3.22938924951158E-07
DEBUG_STATS_RL:               GsNm1 (DYNAMICS) mean=  1.04019656274789E-10
DEBUG_STATS_RL:               GsNm1 (DYNAMICS) S.D.=  1.85402305089502E-08
DEBUG_STATS_RL:    cg2d_b (SOLVE_FOR_PRESSURE)  min= -2.04080500217826E+04
DEBUG_STATS_RL:    cg2d_b (SOLVE_FOR_PRESSURE)  max=  2.29155400468618E+04
DEBUG_STATS_RL:    cg2d_b (SOLVE_FOR_PRESSURE) mean=  3.54848661840725E+00
DEBUG_STATS_RL:    cg2d_b (SOLVE_FOR_PRESSURE) S.D.=  3.69314419788233E+03
 cg2d: Sum(rhs),rhsMax =   3.58479289809995E-01  1.50515402493400E+00
(PID.TID 0000.0001)  cg2d: iter=     1 ; resid.=  1.25337023617229E-01
(PID.TID 0000.0001)  cg2d: iter=     2 ; resid.=  1.01969625895115E-01
(PID.TID 0000.0001)  cg2d: iter=     3 ; resid.=  1.02744981244795E-01
(PID.TID 0000.0001)  cg2d: iter=     4 ; resid.=  8.45336581553569E-02
(PID.TID 0000.0001)  cg2d: iter=     5 ; resid.=  7.94425033630088E-02
(PID.TID 0000.0001)  cg2d: iter=     6 ; resid.=  7.47930070517262E-02
(PID.TID 0000.0001)  cg2d: iter=     7 ; resid.=  6.30008625850021E-02
(PID.TID 0000.0001)  cg2d: iter=     8 ; resid.=  4.90908106445121E-02
(PID.TID 0000.0001)  cg2d: iter=     9 ; resid.=  3.71819195725820E-02
(PID.TID 0000.0001)  cg2d: iter=    10 ; resid.=  2.99385473689633E-02
(PID.TID 0000.0001)  cg2d: iter=    11 ; resid.=  2.60871636631147E-02
(PID.TID 0000.0001)  cg2d: iter=    12 ; resid.=  2.24408678398580E-02
(PID.TID 0000.0001)  cg2d: iter=    13 ; resid.=  1.84472335536598E-02
(PID.TID 0000.0001)  cg2d: iter=    14 ; resid.=  1.54115007132848E-02
(PID.TID 0000.0001)  cg2d: iter=    15 ; resid.=  1.18263066325767E-02
(PID.TID 0000.0001)  cg2d: iter=    16 ; resid.=  9.90914242476171E-03
(PID.TID 0000.0001)  cg2d: iter=    17 ; resid.=  9.09914098009032E-03
(PID.TID 0000.0001)  cg2d: iter=    18 ; resid.=  7.84760723170935E-03
(PID.TID 0000.0001)  cg2d: iter=    19 ; resid.=  6.60758986843778E-03
(PID.TID 0000.0001)  cg2d: iter=    20 ; resid.=  5.17210200304424E-03
(PID.TID 0000.0001)  cg2d: iter=    21 ; resid.=  4.31608207719779E-03
(PID.TID 0000.0001)  cg2d: iter=    22 ; resid.=  3.80616910476162E-03
(PID.TID 0000.0001)  cg2d: iter=    23 ; resid.=  3.15403079244927E-03
(PID.TID 0000.0001)  cg2d: iter=    24 ; resid.=  2.60221501802728E-03
(PID.TID 0000.0001)  cg2d: iter=    25 ; resid.=  2.16142839566955E-03
(PID.TID 0000.0001)  cg2d: iter=    26 ; resid.=  1.67526496319262E-03
(PID.TID 0000.0001)  cg2d: iter=    27 ; resid.=  1.48245964600482E-03
(PID.TID 0000.0001)  cg2d: iter=    28 ; resid.=  1.22067516818841E-03
(PID.TID 0000.0001)  cg2d: iter=    29 ; resid.=  9.47736152273056E-04
(PID.TID 0000.0001)  cg2d: iter=    30 ; resid.=  7.86636255907685E-04
(PID.TID 0000.0001)  cg2d: iter=    31 ; resid.=  6.92168262719943E-04
(PID.TID 0000.0001)  cg2d: iter=    32 ; resid.=  5.26323366584113E-04
(PID.TID 0000.0001)  cg2d: iter=    33 ; resid.=  4.14507242540250E-04
(PID.TID 0000.0001)  cg2d: iter=    34 ; resid.=  3.51906413968836E-04
(PID.TID 0000.0001)  cg2d: iter=    35 ; resid.=  3.03722682868492E-04
(PID.TID 0000.0001)  cg2d: iter=    36 ; resid.=  2.74341317555070E-04
(PID.TID 0000.0001)  cg2d: iter=    37 ; resid.=  2.31541955075441E-04
(PID.TID 0000.0001)  cg2d: iter=    38 ; resid.=  1.97343580219626E-04
(PID.TID 0000.0001)  cg2d: iter=    39 ; resid.=  1.66667328957755E-04
(PID.TID 0000.0001)  cg2d: iter=    40 ; resid.=  1.38450712157584E-04
(PID.TID 0000.0001)  cg2d: iter=    41 ; resid.=  1.15992150212128E-04
(PID.TID 0000.0001)  cg2d: iter=    42 ; resid.=  1.03139198193022E-04
(PID.TID 0000.0001)  cg2d: iter=    43 ; resid.=  9.06874014534632E-05
(PID.TID 0000.0001)  cg2d: iter=    44 ; resid.=  7.88051433193212E-05
(PID.TID 0000.0001)  cg2d: iter=    45 ; resid.=  6.60573800135413E-05
(PID.TID 0000.0001)  cg2d: iter=    46 ; resid.=  5.21965150803346E-05
(PID.TID 0000.0001)  cg2d: iter=    47 ; resid.=  4.28804392996514E-05
(PID.TID 0000.0001)  cg2d: iter=    48 ; resid.=  3.31014820727724E-05
(PID.TID 0000.0001)  cg2d: iter=    49 ; resid.=  2.59201192596150E-05
(PID.TID 0000.0001)  cg2d: iter=    50 ; resid.=  2.19970962608582E-05
(PID.TID 0000.0001)  cg2d: iter=    51 ; resid.=  1.84784013134025E-05
(PID.TID 0000.0001)  cg2d: iter=    52 ; resid.=  1.73817798968439E-05
(PID.TID 0000.0001)  cg2d: iter=    53 ; resid.=  1.46393313905735E-05
(PID.TID 0000.0001)  cg2d: iter=    54 ; resid.=  1.21066300206490E-05
(PID.TID 0000.0001)  cg2d: iter=    55 ; resid.=  1.06771383920153E-05
(PID.TID 0000.0001)  cg2d: iter=    56 ; resid.=  9.20864125155531E-06
(PID.TID 0000.0001)  cg2d: iter=    57 ; resid.=  7.26142138814394E-06
(PID.TID 0000.0001)  cg2d: iter=    58 ; resid.=  5.73056661727230E-06
(PID.TID 0000.0001)  cg2d: iter=    59 ; resid.=  4.43934393227332E-06
(PID.TID 0000.0001)  cg2d: iter=    60 ; resid.=  3.26820374958721E-06
(PID.TID 0000.0001)  cg2d: iter=    61 ; resid.=  2.70728360181854E-06
(PID.TID 0000.0001)  cg2d: iter=    62 ; resid.=  2.31706443168417E-06
(PID.TID 0000.0001)  cg2d: iter=    63 ; resid.=  1.94783922897276E-06
(PID.TID 0000.0001)  cg2d: iter=    64 ; resid.=  1.70555263477623E-06
(PID.TID 0000.0001)  cg2d: iter=    65 ; resid.=  1.31343904263930E-06
(PID.TID 0000.0001)  cg2d: iter=    66 ; resid.=  1.06762799266322E-06
(PID.TID 0000.0001)  cg2d: iter=    67 ; resid.=  9.27182120407688E-07
(PID.TID 0000.0001)  cg2d: iter=    68 ; resid.=  8.13245405701293E-07
(PID.TID 0000.0001)  cg2d: iter=    69 ; resid.=  6.57268765525333E-07
(PID.TID 0000.0001)  cg2d: iter=    70 ; resid.=  5.49439693266469E-07
(PID.TID 0000.0001)  cg2d: iter=    71 ; resid.=  4.64144940392444E-07
(PID.TID 0000.0001)  cg2d: iter=    72 ; resid.=  3.75879124660448E-07
(PID.TID 0000.0001)  cg2d: iter=    73 ; resid.=  3.19076075705233E-07
(PID.TID 0000.0001)  cg2d: iter=    74 ; resid.=  2.74233448979361E-07
(PID.TID 0000.0001)  cg2d: iter=    75 ; resid.=  2.23725889764127E-07
(PID.TID 0000.0001)  cg2d: iter=    76 ; resid.=  1.78963317421434E-07
(PID.TID 0000.0001)  cg2d: iter=    77 ; resid.=  1.58316969827198E-07
(PID.TID 0000.0001)  cg2d: iter=    78 ; resid.=  1.23074357051364E-07
(PID.TID 0000.0001)  cg2d: iter=    79 ; resid.=  9.68869897334040E-08
(PID.TID 0000.0001)  cg2d: iter=    80 ; resid.=  7.67790250186611E-08
(PID.TID 0000.0001)  cg2d: iter=    81 ; resid.=  5.89413967612491E-08
(PID.TID 0000.0001)  cg2d: iter=    82 ; resid.=  4.83014408079927E-08
(PID.TID 0000.0001)  cg2d: iter=    83 ; resid.=  3.82645509387312E-08
(PID.TID 0000.0001)  cg2d: iter=    84 ; resid.=  2.70626395777262E-08
(PID.TID 0000.0001)  cg2d: iter=    85 ; resid.=  2.08084764834849E-08
(PID.TID 0000.0001)  cg2d: iter=    86 ; resid.=  1.63133850010039E-08
(PID.TID 0000.0001)  cg2d: iter=    87 ; resid.=  1.21558085484374E-08
(PID.TID 0000.0001)  cg2d: iter=    88 ; resid.=  9.54093776412397E-09
(PID.TID 0000.0001)  cg2d: iter=    89 ; resid.=  8.47261127727544E-09
(PID.TID 0000.0001)  cg2d: iter=    90 ; resid.=  6.27467370197541E-09
(PID.TID 0000.0001)  cg2d: iter=    91 ; resid.=  4.86266105055214E-09
(PID.TID 0000.0001)  cg2d: iter=    92 ; resid.=  3.76481841925834E-09
(PID.TID 0000.0001)  cg2d: iter=    93 ; resid.=  2.80289528765668E-09
(PID.TID 0000.0001)  cg2d: iter=    94 ; resid.=  2.17053707863780E-09
(PID.TID 0000.0001)  cg2d: iter=    95 ; resid.=  1.73670636945783E-09
(PID.TID 0000.0001)  cg2d: iter=    96 ; resid.=  1.25236077169858E-09
(PID.TID 0000.0001)  cg2d: iter=    97 ; resid.=  9.54493638005789E-10
(PID.TID 0000.0001)  cg2d: iter=    98 ; resid.=  7.53638657820742E-10
(PID.TID 0000.0001)  cg2d: iter=    99 ; resid.=  5.98944481663375E-10
(PID.TID 0000.0001)  cg2d: iter=   100 ; resid.=  5.50449335816295E-10
(PID.TID 0000.0001)  cg2d: iter=   101 ; resid.=  4.40794013193956E-10
(PID.TID 0000.0001)  cg2d: iter=   102 ; resid.=  3.65482236948071E-10
(PID.TID 0000.0001)  cg2d: iter=   103 ; resid.=  3.12326124543120E-10
(PID.TID 0000.0001)  cg2d: iter=   104 ; resid.=  2.76396260825526E-10
(PID.TID 0000.0001)  cg2d: iter=   105 ; resid.=  2.25597007213934E-10
(PID.TID 0000.0001)  cg2d: iter=   106 ; resid.=  1.93420453248785E-10
(PID.TID 0000.0001)  cg2d: iter=   107 ; resid.=  1.52127503467898E-10
(PID.TID 0000.0001)  cg2d: iter=   108 ; resid.=  1.14242049061692E-10
(PID.TID 0000.0001)  cg2d: iter=   109 ; resid.=  8.47511899826764E-11
(PID.TID 0000.0001)  cg2d: iter=   110 ; resid.=  6.52401906588423E-11
(PID.TID 0000.0001)  cg2d: iter=   111 ; resid.=  5.03496735203855E-11
(PID.TID 0000.0001)  cg2d: iter=   112 ; resid.=  3.83222509851819E-11
(PID.TID 0000.0001)  cg2d: iter=   113 ; resid.=  2.64716078682944E-11
(PID.TID 0000.0001)  cg2d: iter=   114 ; resid.=  2.03015609947846E-11
(PID.TID 0000.0001)  cg2d: iter=   115 ; resid.=  1.58415128897083E-11
(PID.TID 0000.0001)  cg2d: iter=   116 ; resid.=  1.11647098012094E-11
(PID.TID 0000.0001)  cg2d: iter=   117 ; resid.=  8.66923864107568E-12
(PID.TID 0000.0001)  cg2d: iter=   118 ; resid.=  6.73556388633898E-12
(PID.TID 0000.0001)  cg2d: iter=   119 ; resid.=  5.48183918117031E-12
(PID.TID 0000.0001)  cg2d: iter=   120 ; resid.=  4.18092168624345E-12
(PID.TID 0000.0001)  cg2d: iter=   121 ; resid.=  3.09722302716033E-12
(PID.TID 0000.0001)  cg2d: iter=   122 ; resid.=  2.70331903657281E-12
(PID.TID 0000.0001)  cg2d: iter=   123 ; resid.=  2.23557147966532E-12
(PID.TID 0000.0001)  cg2d: iter=   124 ; resid.=  1.58562700219047E-12
(PID.TID 0000.0001)  cg2d: iter=   125 ; resid.=  1.13715912182927E-12
(PID.TID 0000.0001)  cg2d: iter=   126 ; resid.=  8.30587289859868E-13
(PID.TID 0000.0001)  cg2d: iter=   127 ; resid.=  5.51921424179240E-13
(PID.TID 0000.0001)  cg2d: iter=   128 ; resid.=  3.65417051970845E-13
(PID.TID 0000.0001)  cg2d: iter=   129 ; resid.=  2.65121803949323E-13
(PID.TID 0000.0001)  cg2d: iter=   130 ; resid.=  1.85696374454640E-13
(PID.TID 0000.0001)  cg2d: iter=   131 ; resid.=  1.25465231698897E-13
(PID.TID 0000.0001)  cg2d: iter=   132 ; resid.=  8.90826003990679E-14
DEBUG_STATS_RL:    cg2d_x (SOLVE_FOR_PRESSURE)  min= -1.71573324488208E+01
DEBUG_STATS_RL:    cg2d_x (SOLVE_FOR_PRESSURE)  max=  8.99225874204350E+00
DEBUG_STATS_RL:    cg2d_x (SOLVE_FOR_PRESSURE) mean= -1.78610531406701E+00
DEBUG_STATS_RL:    cg2d_x (SOLVE_FOR_PRESSURE) S.D.=  6.86654250267694E+00
(PID.TID 0000.0001)      cg2d_init_res =   3.43053831933564E-01
(PID.TID 0000.0001)      cg2d_iters(min,last) =      -1     132
(PID.TID 0000.0001)      cg2d_last_res =   8.90826003990679E-14
(PID.TID 0000.0001) // =======================================================
(PID.TID 0000.0001) // Begin MONITOR dynamic field statistics
(PID.TID 0000.0001) // =======================================================
(PID.TID 0000.0001) %MON time_tsnumber                =                    49
(PID.TID 0000.0001) %MON time_secondsf                =   4.2336000000000E+06
(PID.TID 0000.0001) %MON dynstat_eta_max              =   9.1664207360279E-01
(PID.TID 0000.0001) %MON dynstat_eta_min              =  -1.7489635523773E+00
(PID.TID 0000.0001) %MON dynstat_eta_mean             =  -3.7024057884932E-03
(PID.TID 0000.0001) %MON dynstat_eta_sd               =   6.1074210604492E-01
(PID.TID 0000.0001) %MON dynstat_eta_del2             =   2.2600652253570E-03
(PID.TID 0000.0001) %MON dynstat_uvel_max             =   1.8291529148709E-01
(PID.TID 0000.0001) %MON dynstat_uvel_min             =  -1.4157416755188E-01
(PID.TID 0000.0001) %MON dynstat_uvel_mean            =   1.1687721691343E-03
(PID.TID 0000.0001) %MON dynstat_uvel_sd              =   1.5124100216565E-02
(PID.TID 0000.0001) %MON dynstat_uvel_del2            =   9.1316810930929E-05
(PID.TID 0000.0001) %MON dynstat_vvel_max             =   1.3216922555039E-01
(PID.TID 0000.0001) %MON dynstat_vvel_min             =  -1.0542326486284E-01
(PID.TID 0000.0001) %MON dynstat_vvel_mean            =   2.8040425769984E-05
(PID.TID 0000.0001) %MON dynstat_vvel_sd              =   8.9864096364560E-03
(PID.TID 0000.0001) %MON dynstat_vvel_del2            =   7.7514491893674E-05
(PID.TID 0000.0001) %MON dynstat_wvel_max             =   1.3038230490512E-04
(PID.TID 0000.0001) %MON dynstat_wvel_min             =  -1.1071289284244E-04
(PID.TID 0000.0001) %MON dynstat_wvel_mean            =  -6.7015954434206E-23
(PID.TID 0000.0001) %MON dynstat_wvel_sd              =   1.3380842727617E-05
(PID.TID 0000.0001) %MON dynstat_wvel_del2            =   1.3542269713413E-07
(PID.TID 0000.0001) %MON dynstat_theta_max            =   3.0367884055139E+01
(PID.TID 0000.0001) %MON dynstat_theta_min            =  -1.9858529891243E+00
(PID.TID 0000.0001) %MON dynstat_theta_mean           =   3.6325242059104E+00
(PID.TID 0000.0001) %MON dynstat_theta_sd             =   4.4211816917605E+00
(PID.TID 0000.0001) %MON dynstat_theta_del2           =   4.7680280238239E-03
(PID.TID 0000.0001) %MON dynstat_salt_max             =   3.7469697365524E+01
(PID.TID 0000.0001) %MON dynstat_salt_min             =   2.9853388464563E+01
(PID.TID 0000.0001) %MON dynstat_salt_mean            =   3.4727993685771E+01
(PID.TID 0000.0001) %MON dynstat_salt_sd              =   2.9638926551950E-01
(PID.TID 0000.0001) %MON dynstat_salt_del2            =   9.8660613303718E-04
(PID.TID 0000.0001) %MON dynstat_sst_max              =   3.0367884055139E+01
(PID.TID 0000.0001) %MON dynstat_sst_min              =  -1.9858529891243E+00
(PID.TID 0000.0001) %MON dynstat_sst_mean             =   1.8931428484245E+01
(PID.TID 0000.0001) %MON dynstat_sst_sd               =   9.0181729505475E+00
(PID.TID 0000.0001) %MON dynstat_sst_del2             =   2.7397697599966E-02
(PID.TID 0000.0001) %MON dynstat_sss_max              =   3.7445925261757E+01
(PID.TID 0000.0001) %MON dynstat_sss_min              =   2.9853388464563E+01
(PID.TID 0000.0001) %MON dynstat_sss_mean             =   3.4853837681109E+01
(PID.TID 0000.0001) %MON dynstat_sss_sd               =   9.7782629579589E-01
(PID.TID 0000.0001) %MON dynstat_sss_del2             =   7.9037605679550E-03
(PID.TID 0000.0001) %MON forcing_qnet_max             =   3.5005778503418E+02
(PID.TID 0000.0001) %MON forcing_qnet_min             =  -1.7193613128662E+02
(PID.TID 0000.0001) %MON forcing_qnet_mean            =  -1.3295232480064E+01
(PID.TID 0000.0001) %MON forcing_qnet_sd              =   7.5356710185275E+01
(PID.TID 0000.0001) %MON forcing_qnet_del2            =   9.3278656798389E-01
(PID.TID 0000.0001) %MON forcing_qsw_max              =   0.0000000000000E+00
(PID.TID 0000.0001) %MON forcing_qsw_min              =   0.0000000000000E+00
(PID.TID 0000.0001) %MON forcing_qsw_mean             =   0.0000000000000E+00
(PID.TID 0000.0001) %MON forcing_qsw_sd               =   0.0000000000000E+00
(PID.TID 0000.0001) %MON forcing_qsw_del2             =   0.0000000000000E+00
(PID.TID 0000.0001) %MON forcing_empmr_max            =   7.0250469974553E-05
(PID.TID 0000.0001) %MON forcing_empmr_min            =  -7.5240552988021E-05
(PID.TID 0000.0001) %MON forcing_empmr_mean           =   9.0413918728631E-07
(PID.TID 0000.0001) %MON forcing_empmr_sd             =   2.7719997009048E-05
(PID.TID 0000.0001) %MON forcing_empmr_del2           =   3.5454115748184E-07
(PID.TID 0000.0001) %MON forcing_fu_max               =   3.0860858261585E-01
(PID.TID 0000.0001) %MON forcing_fu_min               =  -2.3188623934984E-01
(PID.TID 0000.0001) %MON forcing_fu_mean              =   1.7913340385011E-02
(PID.TID 0000.0001) %MON forcing_fu_sd                =   9.3092736930720E-02
(PID.TID 0000.0001) %MON forcing_fu_del2              =   7.2682591920009E-04
(PID.TID 0000.0001) %MON forcing_fv_max               =   1.8452488817275E-01
(PID.TID 0000.0001) %MON forcing_fv_min               =  -1.9522114694119E-01
(PID.TID 0000.0001) %MON forcing_fv_mean              =  -7.2480099908687E-03
(PID.TID 0000.0001) %MON forcing_fv_sd                =   4.4132733305549E-02
(PID.TID 0000.0001) %MON forcing_fv_del2              =   5.1914537239774E-04
(PID.TID 0000.0001) %MON trAdv_CFL_u_max              =   4.6958119317278E-02
(PID.TID 0000.0001) %MON trAdv_CFL_v_max              =   2.9308958108906E-02
(PID.TID 0000.0001) %MON trAdv_CFL_w_max              =   3.3370572331029E-02
(PID.TID 0000.0001) %MON advcfl_uvel_max              =   4.7820433257451E-02
(PID.TID 0000.0001) %MON advcfl_vvel_max              =   2.5678360784911E-02
(PID.TID 0000.0001) %MON advcfl_wvel_max              =   3.6611055376414E-02
(PID.TID 0000.0001) %MON advcfl_W_hf_max              =   4.4456281528503E-02
(PID.TID 0000.0001) %MON pe_b_mean                    =   4.7732357501590E-04
(PID.TID 0000.0001) %MON ke_max                       =   1.6869807766247E-02
(PID.TID 0000.0001) %MON ke_mean                      =   1.4079499045435E-04
(PID.TID 0000.0001) %MON ke_vol                       =   1.3226782436723E+18
(PID.TID 0000.0001) %MON vort_r_min                   =  -4.9611461606724E-07
(PID.TID 0000.0001) %MON vort_r_max                   =   4.0699623186205E-07
(PID.TID 0000.0001) %MON vort_a_mean                  =  -2.5274806868640E-05
(PID.TID 0000.0001) %MON vort_a_sd                    =   7.3604468173260E-05
(PID.TID 0000.0001) %MON vort_p_mean                  =  -3.1845655133183E-05
(PID.TID 0000.0001) %MON vort_p_sd                    =   1.3162410440054E-04
(PID.TID 0000.0001) %MON surfExpan_theta_mean         =   9.2096845215444E-08
(PID.TID 0000.0001) %MON surfExpan_salt_mean          =   1.1718184312387E-07
(PID.TID 0000.0001) // =======================================================
(PID.TID 0000.0001) // End MONITOR dynamic field statistics
(PID.TID 0000.0001) // =======================================================
 EXTERNAL_FIELDS_LOAD,        49 : iP,iLd,i0,i1=    2    3    2    3 ; Wght=  0.8666666667  0.1333333333
 EXTERNAL_FIELDS_LOAD: (fu0,1),fu,fv= -1.4435E-02 -2.7199E-02 -1.6137E-02 -1.5361E-02
 EXTERNAL_FIELDS_LOAD: SST,SSS,Q,E-P= -4.8546E-01  3.4442E+01  2.3714E+02  8.4710E-06
DEBUG_STATS_RL:          Uvel (THERMODYNAMICS)  min= -1.41574167551882E-01
DEBUG_STATS_RL:          Uvel (THERMODYNAMICS)  max=  1.82915291487090E-01
DEBUG_STATS_RL:          Uvel (THERMODYNAMICS) mean=  4.37766512954463E-03
DEBUG_STATS_RL:          Uvel (THERMODYNAMICS) S.D.=  2.39293452098163E-02
DEBUG_STATS_RL:          Vvel (THERMODYNAMICS)  min= -1.05423264862844E-01
DEBUG_STATS_RL:          Vvel (THERMODYNAMICS)  max=  1.32169225550394E-01
DEBUG_STATS_RL:          Vvel (THERMODYNAMICS) mean=  1.51066865064139E-03
DEBUG_STATS_RL:          Vvel (THERMODYNAMICS) S.D.=  1.44326245782206E-02
DEBUG_STATS_RL:          Wvel (THERMODYNAMICS)  min= -1.10712892842436E-04
DEBUG_STATS_RL:          Wvel (THERMODYNAMICS)  max=  1.30382304905121E-04
DEBUG_STATS_RL:          Wvel (THERMODYNAMICS) mean=  8.61467731645686E-09
DEBUG_STATS_RL:          Wvel (THERMODYNAMICS) S.D.=  1.18357347674304E-05
DEBUG_STATS_RL:         Theta (THERMODYNAMICS)  min= -1.98405789460022E+00
DEBUG_STATS_RL:         Theta (THERMODYNAMICS)  max=  3.03796368688978E+01
DEBUG_STATS_RL:         Theta (THERMODYNAMICS) mean=  3.22808780736518E+00
DEBUG_STATS_RL:         Theta (THERMODYNAMICS) S.D.=  5.87148538244439E+00
DEBUG_STATS_RL:          Salt (THERMODYNAMICS)  min=  9.99999999999998E-03
DEBUG_STATS_RL:          Salt (THERMODYNAMICS)  max=  3.74703967975614E+01
DEBUG_STATS_RL:          Salt (THERMODYNAMICS) mean=  1.88549362517064E+01
DEBUG_STATS_RL:          Salt (THERMODYNAMICS) S.D.=  1.73004535560015E+01
DEBUG_STATS_RL:         GtNm1 (THERMODYNAMICS)  min= -5.00489853534811E-06
DEBUG_STATS_RL:         GtNm1 (THERMODYNAMICS)  max=  2.81238630936544E-06
DEBUG_STATS_RL:         GtNm1 (THERMODYNAMICS) mean=  5.68788195230187E-09
DEBUG_STATS_RL:         GtNm1 (THERMODYNAMICS) S.D.=  1.91258547676120E-07
DEBUG_STATS_RL:         GsNm1 (THERMODYNAMICS)  min= -4.73904195986458E-07
DEBUG_STATS_RL:         GsNm1 (THERMODYNAMICS)  max=  3.23967803359422E-07
DEBUG_STATS_RL:         GsNm1 (THERMODYNAMICS) mean=  4.90845285073355E-11
DEBUG_STATS_RL:         GsNm1 (THERMODYNAMICS) S.D.=  1.85884609185390E-08
DEBUG_STATS_RL:                EtaN (DYNAMICS)  min= -1.74896355237725E+00
DEBUG_STATS_RL:                EtaN (DYNAMICS)  max=  9.16642073602787E-01
DEBUG_STATS_RL:                EtaN (DYNAMICS) mean= -1.82069858722427E-01
DEBUG_STATS_RL:                EtaN (DYNAMICS) S.D.=  6.99953364187252E-01
DEBUG_STATS_RL:                Uvel (DYNAMICS)  min= -1.41574167551882E-01
DEBUG_STATS_RL:                Uvel (DYNAMICS)  max=  1.82915291487090E-01
DEBUG_STATS_RL:                Uvel (DYNAMICS) mean=  4.37766512954463E-03
DEBUG_STATS_RL:                Uvel (DYNAMICS) S.D.=  2.39293452098163E-02
DEBUG_STATS_RL:                Vvel (DYNAMICS)  min= -1.05423264862844E-01
DEBUG_STATS_RL:                Vvel (DYNAMICS)  max=  1.32169225550394E-01
DEBUG_STATS_RL:                Vvel (DYNAMICS) mean=  1.51066865064139E-03
DEBUG_STATS_RL:                Vvel (DYNAMICS) S.D.=  1.44326245782206E-02
DEBUG_STATS_RL:                Wvel (DYNAMICS)  min= -1.10712892842436E-04
DEBUG_STATS_RL:                Wvel (DYNAMICS)  max=  1.30382304905121E-04
DEBUG_STATS_RL:                Wvel (DYNAMICS) mean=  8.61467731645686E-09
DEBUG_STATS_RL:                Wvel (DYNAMICS) S.D.=  1.18357347674304E-05
DEBUG_STATS_RL:               Theta (DYNAMICS)  min= -1.98405789460022E+00
DEBUG_STATS_RL:               Theta (DYNAMICS)  max=  3.03796368688978E+01
DEBUG_STATS_RL:               Theta (DYNAMICS) mean=  3.22808780736518E+00
DEBUG_STATS_RL:               Theta (DYNAMICS) S.D.=  5.87148538244439E+00
DEBUG_STATS_RL:                Salt (DYNAMICS)  min=  9.99999999999998E-03
DEBUG_STATS_RL:                Salt (DYNAMICS)  max=  3.74703967975614E+01
DEBUG_STATS_RL:                Salt (DYNAMICS) mean=  1.88549362517064E+01
DEBUG_STATS_RL:                Salt (DYNAMICS) S.D.=  1.73004535560015E+01
DEBUG_STATS_RL:                  Gu (DYNAMICS)  min= -1.39313561803427E-01
DEBUG_STATS_RL:                  Gu (DYNAMICS)  max=  1.90004788642755E-01
DEBUG_STATS_RL:                  Gu (DYNAMICS) mean=  4.37028065164745E-03
DEBUG_STATS_RL:                  Gu (DYNAMICS) S.D.=  2.39564554148607E-02
DEBUG_STATS_RL:                  Gv (DYNAMICS)  min= -1.04382514977599E-01
DEBUG_STATS_RL:                  Gv (DYNAMICS)  max=  1.35976899937541E-01
DEBUG_STATS_RL:                  Gv (DYNAMICS) mean=  3.86997678155066E-03
DEBUG_STATS_RL:                  Gv (DYNAMICS) S.D.=  1.58359440266274E-02
DEBUG_STATS_RL:               GuNm1 (DYNAMICS)  min= -9.42000352903342E-06
DEBUG_STATS_RL:               GuNm1 (DYNAMICS)  max=  8.88758266236671E-06
DEBUG_STATS_RL:               GuNm1 (DYNAMICS) mean= -4.47021227477255E-09
DEBUG_STATS_RL:               GuNm1 (DYNAMICS) S.D.=  1.17912415433742E-06
DEBUG_STATS_RL:               GvNm1 (DYNAMICS)  min= -9.43264742806874E-06
DEBUG_STATS_RL:               GvNm1 (DYNAMICS)  max=  1.64377026507924E-05
DEBUG_STATS_RL:               GvNm1 (DYNAMICS) mean=  7.45137678930704E-07
DEBUG_STATS_RL:               GvNm1 (DYNAMICS) S.D.=  2.60276550308306E-06
DEBUG_STATS_RL:               GtNm1 (DYNAMICS)  min= -5.00489853534811E-06
DEBUG_STATS_RL:               GtNm1 (DYNAMICS)  max=  2.81238630936544E-06
DEBUG_STATS_RL:               GtNm1 (DYNAMICS) mean=  5.68788195230187E-09
DEBUG_STATS_RL:               GtNm1 (DYNAMICS) S.D.=  1.91258547676120E-07
DEBUG_STATS_RL:               GsNm1 (DYNAMICS)  min= -4.73904195986458E-07
DEBUG_STATS_RL:               GsNm1 (DYNAMICS)  max=  3.23967803359422E-07
DEBUG_STATS_RL:               GsNm1 (DYNAMICS) mean=  4.90845285073355E-11
DEBUG_STATS_RL:               GsNm1 (DYNAMICS) S.D.=  1.85884609185390E-08
DEBUG_STATS_RL:    cg2d_b (SOLVE_FOR_PRESSURE)  min= -2.03365267354991E+04
DEBUG_STATS_RL:    cg2d_b (SOLVE_FOR_PRESSURE)  max=  2.34908198461001E+04
DEBUG_STATS_RL:    cg2d_b (SOLVE_FOR_PRESSURE) mean=  3.61977754515155E+00
DEBUG_STATS_RL:    cg2d_b (SOLVE_FOR_PRESSURE) S.D.=  3.71053159302954E+03
 cg2d: Sum(rhs),rhsMax =   3.56725949623163E-01  1.54293994241690E+00
(PID.TID 0000.0001)  cg2d: iter=     1 ; resid.=  1.23590247072524E-01
(PID.TID 0000.0001)  cg2d: iter=     2 ; resid.=  1.03872052288420E-01
(PID.TID 0000.0001)  cg2d: iter=     3 ; resid.=  1.04846844883641E-01
(PID.TID 0000.0001)  cg2d: iter=     4 ; resid.=  8.65218898494587E-02
(PID.TID 0000.0001)  cg2d: iter=     5 ; resid.=  8.40377717732109E-02
(PID.TID 0000.0001)  cg2d: iter=     6 ; resid.=  7.91857293025505E-02
(PID.TID 0000.0001)  cg2d: iter=     7 ; resid.=  6.53531658618507E-02
(PID.TID 0000.0001)  cg2d: iter=     8 ; resid.=  4.94323170855269E-02
(PID.TID 0000.0001)  cg2d: iter=     9 ; resid.=  3.67642357139004E-02
(PID.TID 0000.0001)  cg2d: iter=    10 ; resid.=  2.95655632854336E-02
(PID.TID 0000.0001)  cg2d: iter=    11 ; resid.=  2.59734907808634E-02
(PID.TID 0000.0001)  cg2d: iter=    12 ; resid.=  2.25447056033450E-02
(PID.TID 0000.0001)  cg2d: iter=    13 ; resid.=  1.89619648653224E-02
(PID.TID 0000.0001)  cg2d: iter=    14 ; resid.=  1.61533884098208E-02
(PID.TID 0000.0001)  cg2d: iter=    15 ; resid.=  1.22644491120511E-02
(PID.TID 0000.0001)  cg2d: iter=    16 ; resid.=  1.01446379712302E-02
(PID.TID 0000.0001)  cg2d: iter=    17 ; resid.=  9.26921619372450E-03
(PID.TID 0000.0001)  cg2d: iter=    18 ; resid.=  7.99424088764341E-03
(PID.TID 0000.0001)  cg2d: iter=    19 ; resid.=  6.67035742340299E-03
(PID.TID 0000.0001)  cg2d: iter=    20 ; resid.=  5.20924646121370E-03
(PID.TID 0000.0001)  cg2d: iter=    21 ; resid.=  4.29856742679379E-03
(PID.TID 0000.0001)  cg2d: iter=    22 ; resid.=  3.79329771136810E-03
(PID.TID 0000.0001)  cg2d: iter=    23 ; resid.=  3.13249407887175E-03
(PID.TID 0000.0001)  cg2d: iter=    24 ; resid.=  2.62516814650057E-03
(PID.TID 0000.0001)  cg2d: iter=    25 ; resid.=  2.24648136401445E-03
(PID.TID 0000.0001)  cg2d: iter=    26 ; resid.=  1.73205325376139E-03
(PID.TID 0000.0001)  cg2d: iter=    27 ; resid.=  1.51400986013264E-03
(PID.TID 0000.0001)  cg2d: iter=    28 ; resid.=  1.23392467036278E-03
(PID.TID 0000.0001)  cg2d: iter=    29 ; resid.=  9.34003617745007E-04
(PID.TID 0000.0001)  cg2d: iter=    30 ; resid.=  7.71416305623345E-04
(PID.TID 0000.0001)  cg2d: iter=    31 ; resid.=  6.77834938187961E-04
(PID.TID 0000.0001)  cg2d: iter=    32 ; resid.=  5.18002333096981E-04
(PID.TID 0000.0001)  cg2d: iter=    33 ; resid.=  4.13796257560862E-04
(PID.TID 0000.0001)  cg2d: iter=    34 ; resid.=  3.52318697273261E-04
(PID.TID 0000.0001)  cg2d: iter=    35 ; resid.=  3.00535296095036E-04
(PID.TID 0000.0001)  cg2d: iter=    36 ; resid.=  2.70141565806873E-04
(PID.TID 0000.0001)  cg2d: iter=    37 ; resid.=  2.26311718202533E-04
(PID.TID 0000.0001)  cg2d: iter=    38 ; resid.=  1.95814708061462E-04
(PID.TID 0000.0001)  cg2d: iter=    39 ; resid.=  1.67142632812950E-04
(PID.TID 0000.0001)  cg2d: iter=    40 ; resid.=  1.36972308759153E-04
(PID.TID 0000.0001)  cg2d: iter=    41 ; resid.=  1.15358308687201E-04
(PID.TID 0000.0001)  cg2d: iter=    42 ; resid.=  1.03199664051568E-04
(PID.TID 0000.0001)  cg2d: iter=    43 ; resid.=  8.91229825274734E-05
(PID.TID 0000.0001)  cg2d: iter=    44 ; resid.=  7.74062179236729E-05
(PID.TID 0000.0001)  cg2d: iter=    45 ; resid.=  6.49916263953669E-05
(PID.TID 0000.0001)  cg2d: iter=    46 ; resid.=  5.12667779197695E-05
(PID.TID 0000.0001)  cg2d: iter=    47 ; resid.=  4.24746906093889E-05
(PID.TID 0000.0001)  cg2d: iter=    48 ; resid.=  3.23347745765916E-05
(PID.TID 0000.0001)  cg2d: iter=    49 ; resid.=  2.54398522653375E-05
(PID.TID 0000.0001)  cg2d: iter=    50 ; resid.=  2.21327709757566E-05
(PID.TID 0000.0001)  cg2d: iter=    51 ; resid.=  1.90717476015332E-05
(PID.TID 0000.0001)  cg2d: iter=    52 ; resid.=  1.82864966007428E-05
(PID.TID 0000.0001)  cg2d: iter=    53 ; resid.=  1.54079958720431E-05
(PID.TID 0000.0001)  cg2d: iter=    54 ; resid.=  1.23227884943456E-05
(PID.TID 0000.0001)  cg2d: iter=    55 ; resid.=  1.06263162855030E-05
(PID.TID 0000.0001)  cg2d: iter=    56 ; resid.=  8.97517674373824E-06
(PID.TID 0000.0001)  cg2d: iter=    57 ; resid.=  6.93485571828524E-06
(PID.TID 0000.0001)  cg2d: iter=    58 ; resid.=  5.55637604325010E-06
(PID.TID 0000.0001)  cg2d: iter=    59 ; resid.=  4.37134154956074E-06
(PID.TID 0000.0001)  cg2d: iter=    60 ; resid.=  3.24079940603657E-06
(PID.TID 0000.0001)  cg2d: iter=    61 ; resid.=  2.72340831871342E-06
(PID.TID 0000.0001)  cg2d: iter=    62 ; resid.=  2.35911820760401E-06
(PID.TID 0000.0001)  cg2d: iter=    63 ; resid.=  2.01275935281967E-06
(PID.TID 0000.0001)  cg2d: iter=    64 ; resid.=  1.78116397604329E-06
(PID.TID 0000.0001)  cg2d: iter=    65 ; resid.=  1.35718561702566E-06
(PID.TID 0000.0001)  cg2d: iter=    66 ; resid.=  1.10664389830597E-06
(PID.TID 0000.0001)  cg2d: iter=    67 ; resid.=  9.53767382878310E-07
(PID.TID 0000.0001)  cg2d: iter=    68 ; resid.=  8.03089200084378E-07
(PID.TID 0000.0001)  cg2d: iter=    69 ; resid.=  6.47880518545075E-07
(PID.TID 0000.0001)  cg2d: iter=    70 ; resid.=  5.52754456255409E-07
(PID.TID 0000.0001)  cg2d: iter=    71 ; resid.=  4.64123551732432E-07
(PID.TID 0000.0001)  cg2d: iter=    72 ; resid.=  3.78075831565744E-07
(PID.TID 0000.0001)  cg2d: iter=    73 ; resid.=  3.23708787309651E-07
(PID.TID 0000.0001)  cg2d: iter=    74 ; resid.=  2.80892443837993E-07
(PID.TID 0000.0001)  cg2d: iter=    75 ; resid.=  2.31570787008486E-07
(PID.TID 0000.0001)  cg2d: iter=    76 ; resid.=  1.85579960882851E-07
(PID.TID 0000.0001)  cg2d: iter=    77 ; resid.=  1.65012721881335E-07
(PID.TID 0000.0001)  cg2d: iter=    78 ; resid.=  1.27833039907346E-07
(PID.TID 0000.0001)  cg2d: iter=    79 ; resid.=  9.66055119798750E-08
(PID.TID 0000.0001)  cg2d: iter=    80 ; resid.=  7.53849713807349E-08
(PID.TID 0000.0001)  cg2d: iter=    81 ; resid.=  5.76103851318261E-08
(PID.TID 0000.0001)  cg2d: iter=    82 ; resid.=  4.64641765849733E-08
(PID.TID 0000.0001)  cg2d: iter=    83 ; resid.=  3.71935857226286E-08
(PID.TID 0000.0001)  cg2d: iter=    84 ; resid.=  2.63153644229603E-08
(PID.TID 0000.0001)  cg2d: iter=    85 ; resid.=  2.05022118184737E-08
(PID.TID 0000.0001)  cg2d: iter=    86 ; resid.=  1.62891824158071E-08
(PID.TID 0000.0001)  cg2d: iter=    87 ; resid.=  1.20846157627445E-08
(PID.TID 0000.0001)  cg2d: iter=    88 ; resid.=  9.48069740660995E-09
(PID.TID 0000.0001)  cg2d: iter=    89 ; resid.=  8.32955885513410E-09
(PID.TID 0000.0001)  cg2d: iter=    90 ; resid.=  6.04651809145494E-09
(PID.TID 0000.0001)  cg2d: iter=    91 ; resid.=  4.71578992627588E-09
(PID.TID 0000.0001)  cg2d: iter=    92 ; resid.=  3.64583899574485E-09
(PID.TID 0000.0001)  cg2d: iter=    93 ; resid.=  2.71286414387568E-09
(PID.TID 0000.0001)  cg2d: iter=    94 ; resid.=  2.14165814586220E-09
(PID.TID 0000.0001)  cg2d: iter=    95 ; resid.=  1.67360309997832E-09
(PID.TID 0000.0001)  cg2d: iter=    96 ; resid.=  1.16418548319777E-09
(PID.TID 0000.0001)  cg2d: iter=    97 ; resid.=  8.68198324725402E-10
(PID.TID 0000.0001)  cg2d: iter=    98 ; resid.=  6.69298975452136E-10
(PID.TID 0000.0001)  cg2d: iter=    99 ; resid.=  5.25328278287198E-10
(PID.TID 0000.0001)  cg2d: iter=   100 ; resid.=  4.82936105130776E-10
(PID.TID 0000.0001)  cg2d: iter=   101 ; resid.=  3.84550919253043E-10
(PID.TID 0000.0001)  cg2d: iter=   102 ; resid.=  3.24587291993487E-10
(PID.TID 0000.0001)  cg2d: iter=   103 ; resid.=  2.81316867919630E-10
(PID.TID 0000.0001)  cg2d: iter=   104 ; resid.=  2.46259548014804E-10
(PID.TID 0000.0001)  cg2d: iter=   105 ; resid.=  2.05941803406730E-10
(PID.TID 0000.0001)  cg2d: iter=   106 ; resid.=  1.79438988156337E-10
(PID.TID 0000.0001)  cg2d: iter=   107 ; resid.=  1.36413569083563E-10
(PID.TID 0000.0001)  cg2d: iter=   108 ; resid.=  1.00091767863847E-10
(PID.TID 0000.0001)  cg2d: iter=   109 ; resid.=  7.32197369529184E-11
(PID.TID 0000.0001)  cg2d: iter=   110 ; resid.=  5.67126403506934E-11
(PID.TID 0000.0001)  cg2d: iter=   111 ; resid.=  4.48132029414156E-11
(PID.TID 0000.0001)  cg2d: iter=   112 ; resid.=  3.55604754481274E-11
(PID.TID 0000.0001)  cg2d: iter=   113 ; resid.=  2.57068231131085E-11
(PID.TID 0000.0001)  cg2d: iter=   114 ; resid.=  2.05842418852974E-11
(PID.TID 0000.0001)  cg2d: iter=   115 ; resid.=  1.62941625738185E-11
(PID.TID 0000.0001)  cg2d: iter=   116 ; resid.=  1.16833771870617E-11
(PID.TID 0000.0001)  cg2d: iter=   117 ; resid.=  9.24784977298349E-12
(PID.TID 0000.0001)  cg2d: iter=   118 ; resid.=  7.33853635777629E-12
(PID.TID 0000.0001)  cg2d: iter=   119 ; resid.=  5.86935595174471E-12
(PID.TID 0000.0001)  cg2d: iter=   120 ; resid.=  4.28854356834405E-12
(PID.TID 0000.0001)  cg2d: iter=   121 ; resid.=  3.08006214602021E-12
(PID.TID 0000.0001)  cg2d: iter=   122 ; resid.=  2.60204474255012E-12
(PID.TID 0000.0001)  cg2d: iter=   123 ; resid.=  2.11331855496738E-12
(PID.TID 0000.0001)  cg2d: iter=   124 ; resid.=  1.49209629231786E-12
(PID.TID 0000.0001)  cg2d: iter=   125 ; resid.=  1.06610038923134E-12
(PID.TID 0000.0001)  cg2d: iter=   126 ; resid.=  7.72424241424381E-13
(PID.TID 0000.0001)  cg2d: iter=   127 ; resid.=  5.19562373610349E-13
(PID.TID 0000.0001)  cg2d: iter=   128 ; resid.=  3.59031848328177E-13
(PID.TID 0000.0001)  cg2d: iter=   129 ; resid.=  2.68554227731468E-13
(PID.TID 0000.0001)  cg2d: iter=   130 ; resid.=  1.96161040406824E-13
(PID.TID 0000.0001)  cg2d: iter=   131 ; resid.=  1.43859213087857E-13
(PID.TID 0000.0001)  cg2d: iter=   132 ; resid.=  1.07597805693315E-13
(PID.TID 0000.0001)  cg2d: iter=   133 ; resid.=  9.23641229880796E-14
DEBUG_STATS_RL:    cg2d_x (SOLVE_FOR_PRESSURE)  min= -1.71614002429024E+01
DEBUG_STATS_RL:    cg2d_x (SOLVE_FOR_PRESSURE)  max=  8.71873137776202E+00
DEBUG_STATS_RL:    cg2d_x (SOLVE_FOR_PRESSURE) mean= -1.78169135903111E+00
DEBUG_STATS_RL:    cg2d_x (SOLVE_FOR_PRESSURE) S.D.=  6.81677566631590E+00
(PID.TID 0000.0001)      cg2d_init_res =   3.31841724969935E-01
(PID.TID 0000.0001)      cg2d_iters(min,last) =      -1     133
(PID.TID 0000.0001)      cg2d_last_res =   9.23641229880796E-14
(PID.TID 0000.0001) // =======================================================
(PID.TID 0000.0001) // Begin MONITOR dynamic field statistics
(PID.TID 0000.0001) // =======================================================
(PID.TID 0000.0001) %MON time_tsnumber                =                    50
(PID.TID 0000.0001) %MON time_secondsf                =   4.3200000000000E+06
(PID.TID 0000.0001) %MON dynstat_eta_max              =   8.8875956959858E-01
(PID.TID 0000.0001) %MON dynstat_eta_min              =  -1.7493782102857E+00
(PID.TID 0000.0001) %MON dynstat_eta_mean             =  -3.7767890307678E-03
(PID.TID 0000.0001) %MON dynstat_eta_sd               =   6.0431604901092E-01
(PID.TID 0000.0001) %MON dynstat_eta_del2             =   2.2725785943268E-03
(PID.TID 0000.0001) %MON dynstat_uvel_max             =   1.8470461244954E-01
(PID.TID 0000.0001) %MON dynstat_uvel_min             =  -1.3974353426299E-01
(PID.TID 0000.0001) %MON dynstat_uvel_mean            =   1.2439166721239E-03
(PID.TID 0000.0001) %MON dynstat_uvel_sd              =   1.4968396043466E-02
(PID.TID 0000.0001) %MON dynstat_uvel_del2            =   9.0713187123904E-05
(PID.TID 0000.0001) %MON dynstat_vvel_max             =   1.3489025987786E-01
(PID.TID 0000.0001) %MON dynstat_vvel_min             =  -1.0337527770657E-01
(PID.TID 0000.0001) %MON dynstat_vvel_mean            =   2.7718354804789E-05
(PID.TID 0000.0001) %MON dynstat_vvel_sd              =   8.9481208534788E-03
(PID.TID 0000.0001) %MON dynstat_vvel_del2            =   7.6988195454599E-05
(PID.TID 0000.0001) %MON dynstat_wvel_max             =   1.4252078502024E-04
(PID.TID 0000.0001) %MON dynstat_wvel_min             =  -1.0781673170251E-04
(PID.TID 0000.0001) %MON dynstat_wvel_mean            =   1.5023111065473E-22
(PID.TID 0000.0001) %MON dynstat_wvel_sd              =   1.3160843699867E-05
(PID.TID 0000.0001) %MON dynstat_wvel_del2            =   1.3378306138019E-07
(PID.TID 0000.0001) %MON dynstat_theta_max            =   3.0379636868898E+01
(PID.TID 0000.0001) %MON dynstat_theta_min            =  -1.9840578946002E+00
(PID.TID 0000.0001) %MON dynstat_theta_mean           =   3.6325957911055E+00
(PID.TID 0000.0001) %MON dynstat_theta_sd             =   4.4214167146582E+00
(PID.TID 0000.0001) %MON dynstat_theta_del2           =   4.7788846754049E-03
(PID.TID 0000.0001) %MON dynstat_salt_max             =   3.7470396797561E+01
(PID.TID 0000.0001) %MON dynstat_salt_min             =   2.9855823000748E+01
(PID.TID 0000.0001) %MON dynstat_salt_mean            =   3.4727991883635E+01
(PID.TID 0000.0001) %MON dynstat_salt_sd              =   2.9639196952692E-01
(PID.TID 0000.0001) %MON dynstat_salt_del2            =   9.8676733822368E-04
(PID.TID 0000.0001) %MON dynstat_sst_max              =   3.0379636868898E+01
(PID.TID 0000.0001) %MON dynstat_sst_min              =  -1.9840578946002E+00
(PID.TID 0000.0001) %MON dynstat_sst_mean             =   1.8938827785325E+01
(PID.TID 0000.0001) %MON dynstat_sst_sd               =   9.0213371570462E+00
(PID.TID 0000.0001) %MON dynstat_sst_del2             =   2.7426444432858E-02
(PID.TID 0000.0001) %MON dynstat_sss_max              =   3.7446977648075E+01
(PID.TID 0000.0001) %MON dynstat_sss_min              =   2.9855823000748E+01
(PID.TID 0000.0001) %MON dynstat_sss_mean             =   3.4853650150929E+01
(PID.TID 0000.0001) %MON dynstat_sss_sd               =   9.7798920298199E-01
(PID.TID 0000.0001) %MON dynstat_sss_del2             =   7.9067326745984E-03
(PID.TID 0000.0001) %MON forcing_qnet_max             =   3.4725963338216E+02
(PID.TID 0000.0001) %MON forcing_qnet_min             =  -1.7163685201009E+02
(PID.TID 0000.0001) %MON forcing_qnet_mean            =  -1.3071892980437E+01
(PID.TID 0000.0001) %MON forcing_qnet_sd              =   7.3968055720569E+01
(PID.TID 0000.0001) %MON forcing_qnet_del2            =   9.2759693781153E-01
(PID.TID 0000.0001) %MON forcing_qsw_max              =   0.0000000000000E+00
(PID.TID 0000.0001) %MON forcing_qsw_min              =   0.0000000000000E+00
(PID.TID 0000.0001) %MON forcing_qsw_mean             =   0.0000000000000E+00
(PID.TID 0000.0001) %MON forcing_qsw_sd               =   0.0000000000000E+00
(PID.TID 0000.0001) %MON forcing_qsw_del2             =   0.0000000000000E+00
(PID.TID 0000.0001) %MON forcing_empmr_max            =   6.9416777629764E-05
(PID.TID 0000.0001) %MON forcing_empmr_min            =  -7.4816678363732E-05
(PID.TID 0000.0001) %MON forcing_empmr_mean           =   8.9104925641196E-07
(PID.TID 0000.0001) %MON forcing_empmr_sd             =   2.7637051706411E-05
(PID.TID 0000.0001) %MON forcing_empmr_del2           =   3.5415798098348E-07
(PID.TID 0000.0001) %MON forcing_fu_max               =   3.0993293523788E-01
(PID.TID 0000.0001) %MON forcing_fu_min               =  -2.3727086881797E-01
(PID.TID 0000.0001) %MON forcing_fu_mean              =   1.8007539974469E-02
(PID.TID 0000.0001) %MON forcing_fu_sd                =   9.3162159555480E-02
(PID.TID 0000.0001) %MON forcing_fu_del2              =   7.2147166739709E-04
(PID.TID 0000.0001) %MON forcing_fv_max               =   1.7883819590012E-01
(PID.TID 0000.0001) %MON forcing_fv_min               =  -1.9373511075974E-01
(PID.TID 0000.0001) %MON forcing_fv_mean              =  -7.2584383408382E-03
(PID.TID 0000.0001) %MON forcing_fv_sd                =   4.3856575417137E-02
(PID.TID 0000.0001) %MON forcing_fv_del2              =   5.1243707888960E-04
(PID.TID 0000.0001) %MON trAdv_CFL_u_max              =   4.7830145929463E-02
(PID.TID 0000.0001) %MON trAdv_CFL_v_max              =   2.9285354076427E-02
(PID.TID 0000.0001) %MON trAdv_CFL_w_max              =   3.2984806695126E-02
(PID.TID 0000.0001) %MON advcfl_uvel_max              =   4.8288224129201E-02
(PID.TID 0000.0001) %MON advcfl_vvel_max              =   2.6207014114594E-02
(PID.TID 0000.0001) %MON advcfl_wvel_max              =   3.7375948405354E-02
(PID.TID 0000.0001) %MON advcfl_W_hf_max              =   4.5385080206502E-02
(PID.TID 0000.0001) %MON pe_b_mean                    =   4.6733296755008E-04
(PID.TID 0000.0001) %MON ke_max                       =   1.6950563192135E-02
(PID.TID 0000.0001) %MON ke_mean                      =   1.3844035808647E-04
(PID.TID 0000.0001) %MON ke_vol                       =   1.3226782436723E+18
(PID.TID 0000.0001) %MON vort_r_min                   =  -4.9334274779093E-07
(PID.TID 0000.0001) %MON vort_r_max                   =   4.2332687389517E-07
(PID.TID 0000.0001) %MON vort_a_mean                  =  -2.5274806929967E-05
(PID.TID 0000.0001) %MON vort_a_sd                    =   7.3604474763024E-05
(PID.TID 0000.0001) %MON vort_p_mean                  =  -3.1845655210454E-05
(PID.TID 0000.0001) %MON vort_p_sd                    =   1.3162416113987E-04
(PID.TID 0000.0001) %MON surfExpan_theta_mean         =   6.9036636641287E-08
(PID.TID 0000.0001) %MON surfExpan_salt_mean          =   1.2171472539834E-07
(PID.TID 0000.0001) // =======================================================
(PID.TID 0000.0001) // End MONITOR dynamic field statistics
(PID.TID 0000.0001) // =======================================================
(PID.TID 0000.0001) // =======================================================
(PID.TID 0000.0001) // Field Current uVel   at iteration         50
(PID.TID 0000.0001) // CMIN =         -1.397435342629903E-01
(PID.TID 0000.0001) // CMAX =          1.847046124495416E-01
(PID.TID 0000.0001) // CINT =          1.201659802639007E-02
(PID.TID 0000.0001) // SYMBOLS (CMIN->CMAX): -abcdefghijklmnopqrstuvwxyz+
(PID.TID 0000.0001) //                  0.0: .
(PID.TID 0000.0001) // RANGE I (Lo:Hi:Step):(     1:    90:     1)
(PID.TID 0000.0001) // RANGE J (Lo:Hi:Step):(    40:     1:    -1)
(PID.TID 0000.0001) // RANGE K (Lo:Hi:Step):(   1:   1:   1)
(PID.TID 0000.0001) // =======================================================
(PID.TID 0000.0001) K =   1
(PID.TID 0000.0001)                I=10      I=20      I=30      I=40      I=50      I=60      I=70      I=80      I=90
(PID.TID 0000.0001) |--J--|123456789|123456789|123456789|123456789|123456789|123456789|123456789|123456789|123456789|
(PID.TID 0000.0001)     40 kllkk..llllllllllll...................................................................kkkk
(PID.TID 0000.0001)     39 lmmmmmllllllll....l......................................................lll.........jjjjk
(PID.TID 0000.0001)     38 mmnmlllllllll............................................................llkk.......jjjklm
(PID.TID 0000.0001)     37 nnm...................................................................l....jk....jkjk..lnn
(PID.TID 0000.0001)     36 on..........................................kkl.....................llllllljjj..jkklmmmnoo
(PID.TID 0000.0001)     35 mm..................................kkk...llkllk....kkkl............kl.....lkjkjklmnnnnpon
(PID.TID 0000.0001)     34 ....................................kkk..kklkkll..lllmmml...................lllnooppppon..
(PID.TID 0000.0001)     33 .....................................kkkjkklllmmmmnoopponll..................mnpqrrrqpoml.
(PID.TID 0000.0001)     32 .....................................kkkklmnnooooopqrrrqpon.................ppqrsssrpnmmm.
(PID.TID 0000.0001)     31 .....................................mnnnopppppqqqqrssrqqpn...............nststtsrqponmm..
(PID.TID 0000.0001)     30 ....................................pqrsssssrrqrrrrrrrqppon.............orsssrrrqqponmmm..
(PID.TID 0000.0001)     29 ..................................mpqrstssssrqppppppooonnnnm............qqqonnnnnnnmmlmm..
(PID.TID 0000.0001)     28 ................................lnnnnnnonnnnnmmmllmmmmmmmmmml..........mnmlkkkkkllllkklm..
(PID.TID 0000.0001)     27 ...............k...............monmlkkllkkkklllkkllmmmmmmlllll....kkl..mmlllllllmmmllk....
(PID.TID 0000.0001)     26 ...............lm............kmopomlkkklllkklllllmmmmmmmmllkkkkk..klnmmonnmmmmmnnmmmlk....
(PID.TID 0000.0001)     25 ...............mml....ml....kllmomkjiiijjjjjjkjjkklkkkkkjjiijkkkk....kllklkkkkkkkkkjij....
(PID.TID 0000.0001)     24 .............kkiijk..klj....jk..jgedcddeeffeeffghhihgffedeegghiiiijk..igigggggghhggfgi....
(PID.TID 0000.0001)     23 .............deeegi..ghg....ik...dba---abbbbccdefghggghgfgfgggggffggj.....fefedefeffgk....
(PID.TID 0000.0001)     22 k............baaaceecddf....k..ibeeecbccccccdefhhiiijjmmkkiiiijihhihii.......hgdddgijknnnk
(PID.TID 0000.0001)     21 kkk.........geddcbeffhill......lillkhggghhhhiijjiiihkjllkkijjkllkjjiij.........hfehklllmmk
(PID.TID 0000.0001)     20 klk........iilkkihijjlmnl.........nmlkijklmmlllkjkjhkiiiiihhjklkjjjhgi..........iegijjkkkj
(PID.TID 0000.0001)     19 kml........ihkmllkkkjkkjjkk....kn......lknponnnmlmljkjihhgfffffffgggfg............hghiiihi
(PID.TID 0000.0001)     18 ikk........gdffddfghhghghjklllmkl....nonlnponoonmnnllkihhgfedccbdefeeei...........igghhhff
(PID.TID 0000.0001)     17 egi..........hfccfgijghiijjlmml......nnmmnnmlmmmlmmmmkjiihgfeedddeffede..........mkhgfeddd
(PID.TID 0000.0001)     16 efh.......n..kihhhhkmljjkkllll........lkmmmllmmmmmmllllkjjiihggfghhhgfgi.........mkihfeeee
(PID.TID 0000.0001)     15 hhii.....ll..lkkjijkmmkkllmll..........kklkklmmmmmmmmmlkkkkjiiijijjiiihik.......klkjjihhhh
(PID.TID 0000.0001)     14 ijji.....lkkjlkkljkmmljkllllk..........lkkkkllmmlmnnmmlkkllkjjlkjjkjjjjjk......lllkjjjiiij
(PID.TID 0000.0001)     13 kkji.....ljjkkkkkjkmmjijlmljj..........mllmmmmmmmnnnmmmmmmmmmmmlkllmlllll.....mmmlllkkkkkk
(PID.TID 0000.0001)     12 nnljjjhmnnnmllkklllmlllmnnlkkklllk.....nnnmmmmmmmnnmmmmmnnnoopnmmnnnnmlk......noooooonooon
(PID.TID 0000.0001)     11 qqponmnqstutssrrqrrqppqqqpooonnnmlk...nnonm..nnnmmmmmmllmnnopoonoopponmk.....noqrsssssrrrr
(PID.TID 0000.0001)     10 tssrsuvwxxzzy++yxxxwvutttssrqqqponml..nonml..mmmmllmmmmmllmoooopppppponm...nmoqrsuuuvvuuut
(PID.TID 0000.0001)      9 uutuuwwwwwxxwxyxvuuvvuuttttssssrrrponnoonm..llmnnnnnmnnnnnnnooopppooonnk..llnqrrsttuuvvvwv
(PID.TID 0000.0001)      8 stttutttssttssrqpnmprttsrrssssssttttutsrqollmmnopqqpppppppppoppppoononnl..mlmnpqppqrrrrrss
(PID.TID 0000.0001)      7 pqqqppopppopppponmjkmopppppppqqrrsstuuutsrrqooopppqrrsrrqqppoppqppoooooponnnnnooonnoooonop
(PID.TID 0000.0001)      6 mnnmmmnnnnnnnnnnnnmlllmmmnnnnooppppppqqrsssrqpppppppqrrrrqpooppppppppppqrrrrrqqponmmmmmmmm
(PID.TID 0000.0001)      5 lllllmmmmmlllllmmmmmlllllllmmmmmmmmmmnnopqrrqpooooooooooppppppppppppppppqpoopponmmmmmmmlll
(PID.TID 0000.0001)      4 kkkkklllllkklllllllllllllmllllllllllllllmmnnnnnnmmmmmmmmmnooooooonnnnnnnmm...lllllllllllkk
(PID.TID 0000.0001)      3 kkjkkkkkkk.............................klllllmmmmllllllllmmmmmmmmmlllllll...kllllllllllkkk
(PID.TID 0000.0001)      2 ...........................................llllllkkkkkkkkkkkkkkk...kkk......lllkkkkkkkk...
(PID.TID 0000.0001)      1 ..........................................................................................
(PID.TID 0000.0001) // =======================================================
(PID.TID 0000.0001) // END OF FIELD                                          =
(PID.TID 0000.0001) // =======================================================
(PID.TID 0000.0001) 
(PID.TID 0000.0001) // =======================================================
(PID.TID 0000.0001) // Field Current vVel   at iteration         50
(PID.TID 0000.0001) // CMIN =         -1.033752777065662E-01
(PID.TID 0000.0001) // CMAX =          1.348902598778611E-01
(PID.TID 0000.0001) // CINT =          8.824649540163973E-03
(PID.TID 0000.0001) // SYMBOLS (CMIN->CMAX): -abcdefghijklmnopqrstuvwxyz+
(PID.TID 0000.0001) //                  0.0: .
(PID.TID 0000.0001) // RANGE I (Lo:Hi:Step):(     1:    90:     1)
(PID.TID 0000.0001) // RANGE J (Lo:Hi:Step):(    40:     1:    -1)
(PID.TID 0000.0001) // RANGE K (Lo:Hi:Step):(   1:   1:   1)
(PID.TID 0000.0001) // =======================================================
(PID.TID 0000.0001) K =   1
(PID.TID 0000.0001)                I=10      I=20      I=30      I=40      I=50      I=60      I=70      I=80      I=90
(PID.TID 0000.0001) |--J--|123456789|123456789|123456789|123456789|123456789|123456789|123456789|123456789|123456789|
(PID.TID 0000.0001)     40 klnpn.lllkkkll...kk..................................................................jjjkj
(PID.TID 0000.0001)     39 kllmlkkjjjjkl...........................................................lkkk........ijkklk
(PID.TID 0000.0001)     38 kll.......................................................................kjl......ji.mmlk
(PID.TID 0000.0001)     37 ln...................................................................lk...kjk...hjnnl.llkk
(PID.TID 0000.0001)     36 mm.........................................nonm....................lkl....hhjk.gfkmllkkmmk
(PID.TID 0000.0001)     35 ...................................llll..mnopppn...jjlmn...................ggghhhjkkkkmo..
(PID.TID 0000.0001)     34 ....................................jjj.lmnnooom.lkkkklmm...................hdeffghihhkl..
(PID.TID 0000.0001)     33 ....................................lhgijkkllmlklkkkkkkkkll.................pghgfefggfgil.
(PID.TID 0000.0001)     32 ....................................miggiijjjkjjkkkklmllkjl................roihihghhgghj..
(PID.TID 0000.0001)     31 ....................................nljiijjjjkkjkklmnoonkjk..............onmjiiiiiiiihil..
(PID.TID 0000.0001)     30 ...................................oomkkklkjjklkkklmooonlkj............pqoonlkkjjjjjjkkl..
(PID.TID 0000.0001)     29 .................................oppmkjjlllkkkkjjjklnnmllkkj...........nonmlkjjjjjijjkmm..
(PID.TID 0000.0001)     28 ...............................mnnnmljiijkkjjjjijjjkllkkkkkkj.........lmmlkkkjjjjjjijk....
(PID.TID 0000.0001)     27 ..............ll..............onnnmlkkkkjjjjjjjjjkkkkkkkllllkk...llnm.mllkklmlllllllll....
(PID.TID 0000.0001)     26 ..............mno...........npqrrssrpoponmmnnnnnnonmooppqqponlkk....oonnnnoppppppqqqpo....
(PID.TID 0000.0001)     25 ..............oprn...nkl...npp.uwxyxwwxwvuttttssstsstvwwxxvtrpnll....qsurstttuvvutssss....
(PID.TID 0000.0001)     24 ............nsttsnh.mmjj...mnk..ruxyzyz+zyxwwwvwwwwwwxxxyywvtsqooppp.....ruwvwyywutuvt....
(PID.TID 0000.0001)     23 ............knqrrok.gjmo...kn...ahnqrstvvusrqrrqqqrssssstutrqonmmnopn.......nqsuttsrrq....
(PID.TID 0000.0001)     22 l...........hjnoonlkhjmn......jf-bdeghkmlllkkkklmnpqqsstuutrolkkllmmml........ppprrqonlkmn
(PID.TID 0000.0001)     21 lji........jlmlkjjkiiknpo......i.ddefgjkjjjkkkmoppqrrsuwwvutrpooonmmll.........kmrssrqoonl
(PID.TID 0000.0001)     20 hgh.......mnsusokijllmnom......i......rpomlmnopqrqqqrqsttsrsttsrqonnmk...........usrqqppnk
(PID.TID 0000.0001)     19 ffi.......mouutoighjjlkjhij...iik.....ponmlllmmmmlklooonlkkmnmmmlkjlll...........qnmmnmlki
(PID.TID 0000.0001)     18 ghj.......k.usnhdbbccfhgfhkmmli.....kmmnlkjijiiijjjklmkjhghihhhhfghjllm..........ljiikjhhh
(PID.TID 0000.0001)     17 gij.......m.mpkgfffgfdghggikmm.......mnmlkjiihhhjlllmljhhgfffgggfeghjii.........klkiijgeef
(PID.TID 0000.0001)     16 ghj......ll.knljkkjmkijkjiihk.........kkkjjijjjjlnnmmmlkjjjjjjiigghhijjk........jmljiihfgg
(PID.TID 0000.0001)     15 jkll....kom.hjjjjhimmjjlllkij.........jjkkkjjkkklmmllmmkklmmlmlkkjkjkklml......ijllkjklkkk
(PID.TID 0000.0001)     14 mnom....lklighijjhhjkjjlmmllk.........jijjjiijjkjkkjijjiijjikmlkkkklkkmnk.....jijlljijklmm
(PID.TID 0000.0001)     13 lmno....efihggijkihijjijllllk.........jhhiiiiiiijiiihhihhggghjijlkkkllno.....miiijjihiijkk
(PID.TID 0000.0001)     12 mmlllhdecehhfgijjjjjiijkmmllkkkklm....jhihi.jijjjiiiiijjjhiiihhjmnlklmnn.....jjiijjhhhhjjl
(PID.TID 0000.0001)     11 oomlkjihggikjilnnnmmmllmnnonmlllklm..kjkkkj.kjkllkjjkkklmllmljjlpqonmnnm....hkmmlllkklklmn
(PID.TID 0000.0001)     10 rrqqppolkklnmnprsspnopqqqqqrqoonmloq.klmml..plllmmlllllmopqponnpstsqppom..pploqrqpppooppqr
(PID.TID 0000.0001)      9 sttuvvsqqpprrssqsvsoqstttsstsrqqportrooonm.ppnnnoooopppqrstsqqqsuutsrqnm.lqrqrtvutssrrssss
(PID.TID 0000.0001)      8 rsttttsssrrsssroouurrstttsrrrrrrrrtusqpnmnprqppqrrqqqqrttttsrqqrttssrqnn.nprssuvussqqrsrrr
(PID.TID 0000.0001)      7 ppoonopqqpppqppooquspopqqppoppqqqqrrponmlnqrrqqrssrrqppqqqqqppppqrrrqqporsrsttssrqpooqqqpp
(PID.TID 0000.0001)      6 nmlllmnoonnnnnmmnopponnnnmlmnnoonmnnmmlklmopppqqqpppomllmmnpponoppqpppppqrrqpooonnnnnnooon
(PID.TID 0000.0001)      5 llkkkkllllkkkkkllmmmlllkjjjkkkkkkkkkllkkklnnmnoponnnmlkkklmnnnmmnnoooooonn..lklmlllllmmmll
(PID.TID 0000.0001)      4 jiijjjiijj............................kjjkklklmmmmmllkkllmmmmllkllmmmlkkk...lkklllllllkkkk
(PID.TID 0000.0001)      3 ..........................................jkkklllllkkkklmllkkjjj..lkkk.....kllllkkkkkjj...
(PID.TID 0000.0001)      2 ..........................................................................................
(PID.TID 0000.0001)      1 ..........................................................................................
(PID.TID 0000.0001) // =======================================================
(PID.TID 0000.0001) // END OF FIELD                                          =
(PID.TID 0000.0001) // =======================================================
(PID.TID 0000.0001) 
(PID.TID 0000.0001) // =======================================================
(PID.TID 0000.0001) // Field Current theta  at iteration         50
(PID.TID 0000.0001) // CMIN =         -1.984057894600217E+00
(PID.TID 0000.0001) // CMAX =          3.037963686889776E+01
(PID.TID 0000.0001) // CINT =          1.198655361611036E+00
(PID.TID 0000.0001) // SYMBOLS (CMIN->CMAX): -abcdefghijklmnopqrstuvwxyz+
(PID.TID 0000.0001) //                  0.0: .
(PID.TID 0000.0001) // RANGE I (Lo:Hi:Step):(     1:    90:     1)
(PID.TID 0000.0001) // RANGE J (Lo:Hi:Step):(    40:     1:    -1)
(PID.TID 0000.0001) // RANGE K (Lo:Hi:Step):(   1:   1:   1)
(PID.TID 0000.0001) // =======================================================
(PID.TID 0000.0001) K =   1
(PID.TID 0000.0001)                I=10      I=20      I=30      I=40      I=50      I=60      I=70      I=80      I=90
(PID.TID 0000.0001) |--J--|123456789|123456789|123456789|123456789|123456789|123456789|123456789|123456789|123456789|
(PID.TID 0000.0001)     40 -bbccbaa------abdddbbbbbbbbbbbbbbbbbbbbbbbbbbbbbbbbbbbbbbbbbbbbbbbbbbbbbbbbbbbbbbbbbbaaa--
(PID.TID 0000.0001)     39 bbcdcccbba----bbbddbbbbbbbbbbbbbbbbbbbbbbbbbbbbbbbbbbbbbbbbbbbbbbbbbbbbb----bbbbbbbbbaaaab
(PID.TID 0000.0001)     38 eeefeecccbbaabbbbbbbbbbbbbbbbbbbbbbbbbbbbbbbbbbbbbbbbbbbbbbbbbbbbbbbbbbb-----bbbbbbb---bcd
(PID.TID 0000.0001)     37 fggbbbbbbbbbbbbbbbbbbbbbbbbbbbbbbbbbbbbbbbbbbbbbbbbbbbbbbbbbbbbbbbbbbbbbbbaabbbbcbcdebcdde
(PID.TID 0000.0001)     36 ggbbbbbbbbbbbbbbbbbbbbbbbbbbbbbbbbbbbbbbbbbca--bbbbbbbbbbbbbbbbbbbbccccbababbdbcefgghhhhgg
(PID.TID 0000.0001)     35 fgbbbbbbbbbbbbbbbbbbbbbbbbbbbbbbbbb----bbbbcccbabbbddeefbbbbbbbbbbbbbbbbbbbcdedeefghiiiihg
(PID.TID 0000.0001)     34 bbbbbbbbbbbbbbbbbbbbbbbbbbbbbbbbbbb----bbccccdddbcddeefffbbbbbbbbbbbbbbbbbbbabdefghiijjibb
(PID.TID 0000.0001)     33 bbbbbbbbbbbbbbbbbbbbbbbbbbbbbbbbbbbb--abccddddddeeeefffggghbbbbbbbbbbbbbbbbbaacgiijkkkkkjb
(PID.TID 0000.0001)     32 bbbbbbbbbbbbbbbbbbbbbbbbbbbbbbbbbbbb-abccddeeeeffgggghhhhhibbbbbbbbbbbbbbbbcbacjklllllkkkb
(PID.TID 0000.0001)     31 bbbbbbbbbbbbbbbbbbbbbbbbbbbbbbbbbbbbdefggghhiiiiiiiijjkkkjkbbbbbbbbbbbbbbgjkjikmnnnmmmlmbb
(PID.TID 0000.0001)     30 bbbbbbbbbbbbbbbbbbbbbbbbbbbbbbbbbbblkkkkkkkllllllllllmmmmllbbbbbbbbbbbbmnoppppppppooonnnbb
(PID.TID 0000.0001)     29 bbbbbbbbbbbbbbbbbbbbbbbbbbbbbbbbboonoonnnnnnnnnnnnnnooooonmmbbbbbbbbbbbpqqqqqqqqqqpppooobb
(PID.TID 0000.0001)     28 bbbbbbbbbbbbbbbbbbbbbbbbbbbbbbbnpppqpppppqqppqqpqqqqqqqqpponnbbbbbbbbbrrrrrrrrqqrrqqppppbb
(PID.TID 0000.0001)     27 bbbbbbbbbbbbbbuubbbbbbbbbbbbbbqrrrrssssrssssssssssssssrrrqppppbbbsrstbtttttttttsssrrrqbbbb
(PID.TID 0000.0001)     26 bbbbbbbbbbbbbbutubbbbbbbbbbbttttttuuuuuuuuuuuuuuuuuuttsssrrqrrsubttuvvvvvuuuuuuuttssrqbbbb
(PID.TID 0000.0001)     25 bbbbbbbbbbbbbbuuvwbbbwvwbbbuuvvwvvwwwwwwwwvvvvvvvvvuuutttsssttuvwbbbwwwvvvvuuvuuttsrqpbbbb
(PID.TID 0000.0001)     24 bbbbbbbbbbbbvvvvwxybwwwxbbbwwvbxwwxxxxwwwwwwwwwwwvvvvvvvuuuvvvwwwvvvbwvvvvvvvvvuuuttsrbbbb
(PID.TID 0000.0001)     23 bbbbbbbbbbbbwwwxxyybwwxxbbbxwwbbxxxxxxxxxxxwxxwwwwwwwxwwwwwwwwwwwwwwvbbbbwwwwwwvvvvvvvbbbb
(PID.TID 0000.0001)     22 wbbbbbbbbbbbwwxxxyyyxxyybbbxxbyyyyyyyyyyyyyyxxxxxxxxxxxwwwwwxwwwwwwwvwbbbbbbxxxwwwxxxyyxww
(PID.TID 0000.0001)     21 wwwbbbbbbbbxxxxxyyyyyzz++bbbbbyyzzzzzzzzzzzyyyyyyyyyyyxxwwxxxwwwwwvvvwbbbbbbbbyxxyyyyzyxxw
(PID.TID 0000.0001)     20 xwvbbbbbbbyyyyyyyzzzzzzz+bbbbbbzbzzzzz++++zzzzzzzzyzyyyyxxxxxxxxwwwwvvbbbbbbbbbyyyyyyyyxyx
(PID.TID 0000.0001)     19 wwvbbbbbbbzzzzzzzzyzzzzzzzybbbzzzbbbbb++z+++zzzzzzzzyyyyxxxxxxwwwwwwvvbbbbbbbbbbbyyxxxwwwx
(PID.TID 0000.0001)     18 vutbbbbbbbzzzyxyyyyyyyyyzzzyzz+zzbbb++zz+++zzzzzzzzzzyyyyyxxxwwwvvvvvvubbbbbbbbbbyyxxwwwww
(PID.TID 0000.0001)     17 uusbbbbbbbzbyyxxxxxyyyyxyyyyyzzbbbbbzzzzzz+zzzzzzzzzzyyyyyxxxwwvuuvuutvbbbbbbbbbyyyyxwuvvu
(PID.TID 0000.0001)     16 utsbbbbbbyzbyyxxxxxxxxxwwxxxyzbbbbbbbyyyyzyzzzzzzyyyyyyyxxyxxxwwvvvuutttbbbbbbbbyyyyxwvvvu
(PID.TID 0000.0001)     15 tsrrbbbbxyybxxxxxwwwwwwwvvvwxbbbbbbbbbwxxxxyxxxxxxxxyyxyyyyyxwwwwvvuttssrbbbbbbxxyyxyxxwvu
(PID.TID 0000.0001)     14 utrqbbbbxyxwwxwwwxwvvuuuutuuubbbbbbbbbwwwwwwwwwwwxxxxxxwxxxxxwwwvvvvtssssbbbbbwwxxxxxxwwvu
(PID.TID 0000.0001)     13 uutrbbbbwxwwwwuuuvvvvuuttttttbbbbbbbbbvvvvvvvvvvvvuuvvvvvwwxxwwvvuuuutssqbbbbvwwwwwwwwwvvu
(PID.TID 0000.0001)     12 tstsssstuvuttutssssstutrrsssrqqrrqbbbbuuuutttttssssstsssstuvuttttsttssrrbbbbbuvvvutuuuuttt
(PID.TID 0000.0001)     11 qpqqrrssssrrrsrqqqppprqpqqqppqqqqqqbbtttsssbrrrqrrrrrrrrrrssqqrrrrrssrqpbbbbprttssrrsrrqqq
(PID.TID 0000.0001)     10 mmmmnooppppppponnnnnnnnmmnmmmnooopppbqrrrqqbpqqqqqqpppppppppoopppooppppobboopppppoooopponn
(PID.TID 0000.0001)      9 jjiijjjkkkkkkkkjjijjjjjiijjjjjkllnnmmnooopbnnoooooooooooonnmmmnnmmlmmnnmbmnnnnmmmllkkllkjj
(PID.TID 0000.0001)      8 ggggggghgghhiihhggghhihgghhhhijjjjkkkklmmmmllllllllmmmllllkkkkkllkkkkklkblllkkkjiiihhhggff
(PID.TID 0000.0001)      7 eeeeeeffggfffggfffffffeeffggggghhhhhiiijkkkjjkkkkjjiiiiiiijiiiiiiiiijjjjijjjiihhgfffffeeee
(PID.TID 0000.0001)      6 cdddeeeeeeeeeefeeeeeeeeffeeedeffffffggghhiiihhiiihgfffgfgggggffghhhhhhhhhhhhggffeedddddddd
(PID.TID 0000.0001)      5 dddeeeddddeeeeeeeeeeeeeedddeeeeeeeeeeeffffggfffffeedddeeeeeeeeeffffffffffffeeeddddddcccccd
(PID.TID 0000.0001)      4 ddddddccccccccccccdcccccbbbcccccccccccddddddddccdddddddddddddddddddddddddcbbbbbccccdcccccd
(PID.TID 0000.0001)      3 ccccbbbaaabbbbbbbbbbbbbbbbbbbbbbbbbbbbbbbbbcccccccccccccbbbbbbbbbbbbbbbbbbbbbaaabbcccccbbb
(PID.TID 0000.0001)      2 bbbbbbbbbbbbbbbbbbbbbbbbbbbbbbbbbbbbbbbbbbbcccccbbbbbaaaaaaaaababbaaaabbbbbaaaaabbbbbbbbbb
(PID.TID 0000.0001)      1 bbbbbbbbbbbbbbbbbbbbbbbbbbbbbbbbbbbbbbbbbbbbbbbbbbbbbbbbbbbbbbbbbbbbbbbbbbbbbbbbbbbbbbbbbb
(PID.TID 0000.0001) // =======================================================
(PID.TID 0000.0001) // END OF FIELD                                          =
(PID.TID 0000.0001) // =======================================================
(PID.TID 0000.0001) 
(PID.TID 0000.0001) // =======================================================
(PID.TID 0000.0001) // Field Current etaN   at iteration         50
(PID.TID 0000.0001) // CMIN =         -1.749378210285710E+00
(PID.TID 0000.0001) // CMAX =          8.887595695985826E-01
(PID.TID 0000.0001) // CINT =          9.770880666238123E-02
(PID.TID 0000.0001) // SYMBOLS (CMIN->CMAX): -abcdefghijklmnopqrstuvwxyz+
(PID.TID 0000.0001) //                  0.0: .
(PID.TID 0000.0001) // RANGE I (Lo:Hi:Step):(    -1:    92:     1)
(PID.TID 0000.0001) // RANGE J (Lo:Hi:Step):(    42:    -1:    -1)
(PID.TID 0000.0001) // RANGE K (Lo:Hi:Step):(   1:   1:   1)
(PID.TID 0000.0001) // =======================================================
(PID.TID 0000.0001) K =   1
(PID.TID 0000.0001)                I=8       I=18      I=28      I=38      I=48      I=58      I=68      I=78      I=88
(PID.TID 0000.0001) |--J--|101234567|901234567|901234567|901234567|901234567|901234567|901234567|901234567|901234567|9012
(PID.TID 0000.0001)     42 ............................................bbbbbbbcccccdccccbbbbc..dddd.....------aaa---.....
(PID.TID 0000.0001)     41 ..............................................................................................
(PID.TID 0000.0001)     40 iihhijj.lkkkkkjjjjjjj..................................................................iiiiihh
(PID.TID 0000.0001)     39 hhhhiijjjjjjjjjj...kk.....................................................eeee........iiiihhhh
(PID.TID 0000.0001)     38 iiijjjkjkkkkjjk...........................................................fffee......jihhhiiij
(PID.TID 0000.0001)     37 iiijk..................................................................jj...gff...ggghh.hiiiij
(PID.TID 0000.0001)     36 jjjl.........................................oooo....................kkkjjihgfff.hfffhhiiijjjl
(PID.TID 0000.0001)     35 lkkl.................................pppp..nooooon...qpppq...........mll....geeeeeeffghijjlkkl
(PID.TID 0000.0001)     34 .....................................qppp.oooooooo.poooopqr..................hhgffffghijkn....
(PID.TID 0000.0001)     33 k.....................................qpooooooooppppppppqqrss.................kihhiiijkllkk...
(PID.TID 0000.0001)     32 m.....................................qqpoopppppqqqqqqqqrrrss................fkkjklllmmmllm...
(PID.TID 0000.0001)     31 ......................................qqqpppqqqrrrrrrrrssstst..............mmnnmmmmmmmmmmm....
(PID.TID 0000.0001)     30 .....................................sssssssssrsssssssttttutt............looopqpppooonnnnn....
(PID.TID 0000.0001)     29 ...................................uvvwwvvuvvuuuuuuuuuuuuuuuts...........pqrrrrqqqppoonnnn....
(PID.TID 0000.0001)     28 .................................uwwxyyyyxxxwwwwvvvvvuuvvuuuutt.........rrrrrrrqqqppooonnn....
(PID.TID 0000.0001)     27 ................rr..............yxyyyzzzyyyyxxxxwwwwwwvvvvuuuutt...rrrr.ssssrrrqqpppooon......
(PID.TID 0000.0001)     26 ................rrr...........zyzzzzzzzzzzzzyyyxxxwxxwwwvvvuuttttu.rrrstttssssrrqppppoon......
(PID.TID 0000.0001)     25 ................ssst...uuu...zyyyzzzzyyyyyyyyyyxxwwwwwwwvvuuuuuuuuu...sttttssrrrqqpppoon......
(PID.TID 0000.0001)     24 ..............sssstuu.vuuu...zzy.+zyyxxxxxyyxxxxwwwwwvvvvuuuuuuuuvuuuu.tttssrrrrqqppppoo......
(PID.TID 0000.0001)     23 ..............tssttuu.vuuu...zzy..zyxxxxxxxxxxxwwwwwwwvvvvvuuuuuuuuuuuu....srrrrqqqqpppp......
(PID.TID 0000.0001)     22 qqq...........sssstttuuuuv...+z.yyzyyyyyyyyxxxxxxxxxxxwwwvvvvuuuuuuuuuuu......ssrrqqqqrrrqqqq.
(PID.TID 0000.0001)     21 qqqqq........ttttttttuvvvwv.....xyzyyyyyyzzyyyyyxxxxxxxwwwwvvvvvuuuuuuuv........srrrrrrrqqqqqq
(PID.TID 0000.0001)     20 qqqqq.......uuuuuuuuuvvvvvw......y.xxxxyyyyyyyyyxxxxxxwwwwwvvvvvvvuuuuuu.........rrsrrrqqqqqqq
(PID.TID 0000.0001)     19 qqqqp.......vvvuuvvvvvvvvvvvv...wxx.....zyyyyyyyxxxxxxwwwwwvvvvvvuuuuuuu...........ssrrqqqqqqq
(PID.TID 0000.0001)     18 ppppp.......vvvvuuuuuuuvuuvvvvvwwxx...zzyxyyxxxxxxxxxxxxwwwwvvvvuuuttuutt..........tsrrqqqpppp
(PID.TID 0000.0001)     17 ppppo.......v.xvvuuuuvvvvuuvvvvvv.....zyyxxxxxxxxxxxxxxxwwwwwwvvvuuuuuutt.........utsrrqpppppp
(PID.TID 0000.0001)     16 qpppo......xw.yxwwvwwwvvvvuuuuvv.......yxxxxxxxxxxxyyyyxxxxxwwwwvvvuuuutts........ttsssrqqqppp
(PID.TID 0000.0001)     15 rqqpoo....xwv.xxwwwwwvvvvvuuttu.........xwwwxxxxxxxxxyyxxxxyyxxwwvvvvuutssr......sttsttssrrqqp
(PID.TID 0000.0001)     14 srrqpo....wwvuwwvvvvvvutuuutsss.........vvvvwwwwwwwwwwxxxxxyyxxxwwvvvvuutss.....rsstttttttsrrq
(PID.TID 0000.0001)     13 tssrqp....vwwvvvvuuuuuttuutssrr.........uuvvuuvvvvvvvvvvwwwxxxyxwwwwvvuutss....qrssssstttttssr
(PID.TID 0000.0001)     12 ssrrqqpnqsuvvuvvvuuttttuuutssrrrrrqq....stttttttttttttuuuuuvvvwwwwwvvuutts.....rssssssssttssrr
(PID.TID 0000.0001)     11 rrqqqppqrstuvuuvuttttsssttssrrqrrrrrr..rsssss.stttsssttuuuuuuuuuvwvuuuttsr....prqrqqqqrrrrrrqq
(PID.TID 0000.0001)     10 ppoooonooopqrqqrrrqqpqqqqqqqqpppppqrrr.rrrrrr.qrssssstttuuutttttuvutsssssr..pnpqponnnnooppppoo
(PID.TID 0000.0001)      9 lllllllkjkkllllllllkklmnnnnnnnnnopprsrqqrrrr.sqqrssssssstuuutssttttsrrrrrq.rqoooomlkkkklllllll
(PID.TID 0000.0001)      8 gghhhhgffgggghhhhhjhghijjjjjjkkllmmnopoppqrstrqqqqqqrrssssssrrrrsssrqqqqru.qonmlkjhhgggggggghh
(PID.TID 0000.0001)      7 ddddcccddddeeeeffgghfeeefffggghhiiijjiijklnoponnnnnmmmnnoooooooopppppooppqqoonlkihfeddeddddddd
(PID.TID 0000.0001)      6 aaaaabbccccccddddefffedddddeefffffeffeefghjkllkkkjjiihhhijkklllllmmmlllllllkjihgeddccccccbaaaa
(PID.TID 0000.0001)      5 aa--aabbbbbbbbcccdddddccccccddddccccdddddeeffggggfeeeeddefghiihhiiiihhhhhgfedcbbbbaaaaaaaaaa--
(PID.TID 0000.0001)      4 aaaaaaaabbbbccccccccccccccddddcccccccccccccccccddcccccccddeeeeeeefffeeeeddde..-aaaaaaaa---aaaa
(PID.TID 0000.0001)      3 aaabbbbbbccc............................cbcccccccccbbbccccccccccccddddddded..baaaaaaaaaaaaaaab
(PID.TID 0000.0001)      2 ............................................bbbbbbbcccccdccccbbbbc..dddd.....------aaa---.....
(PID.TID 0000.0001)      1 ..............................................................................................
(PID.TID 0000.0001)      0 iihhijj.lkkkkkjjjjjjj..................................................................iiiiihh
(PID.TID 0000.0001)     -1 hhhhiijjjjjjjjjj...kk.....................................................eeee........iiiihhhh
(PID.TID 0000.0001) // =======================================================
(PID.TID 0000.0001) // END OF FIELD                                          =
(PID.TID 0000.0001) // =======================================================
(PID.TID 0000.0001) 
(PID.TID 0000.0001)  MDS_WRITE_FIELD: it,rec,kS,kL,kH=      50     1  15   1  15 file=U.0000000050
(PID.TID 0000.0001)  MDS_WRITE_FIELD: it,rec,kS,kL,kH=      50     1  15   1  15 file=V.0000000050
(PID.TID 0000.0001)  MDS_WRITE_FIELD: it,rec,kS,kL,kH=      50     1  15   1  15 file=T.0000000050
(PID.TID 0000.0001)  MDS_WRITE_FIELD: it,rec,kS,kL,kH=      50     1  15   1  15 file=S.0000000050
(PID.TID 0000.0001)  MDS_WRITE_FIELD: it,rec,kS,kL,kH=      50     1   1   1   1 file=Eta.0000000050
(PID.TID 0000.0001)  MDS_WRITE_FIELD: it,rec,kS,kL,kH=      50     1  15   1  15 file=W.0000000050
(PID.TID 0000.0001)  MDS_WRITE_FIELD: it,rec,kS,kL,kH=      50     1  15   1  15 file=PH.0000000050
(PID.TID 0000.0001)  MDS_WRITE_FIELD: it,rec,kS,kL,kH=      50     1   1   1   1 file=PHL.0000000050
(PID.TID 0000.0001)  MDS_WRITE_FIELD: it,rec,kS,kL,kH=      50     1   1   1   1 file=ETAtave.0000000050
(PID.TID 0000.0001)  MDS_WRITE_FIELD: it,rec,kS,kL,kH=      50     1  15   1  15 file=Ttave.0000000050
(PID.TID 0000.0001)  MDS_WRITE_FIELD: it,rec,kS,kL,kH=      50     1  15   1  15 file=Stave.0000000050
(PID.TID 0000.0001)  MDS_WRITE_FIELD: it,rec,kS,kL,kH=      50     1  15   1  15 file=uVeltave.0000000050
(PID.TID 0000.0001)  MDS_WRITE_FIELD: it,rec,kS,kL,kH=      50     1  15   1  15 file=vVeltave.0000000050
(PID.TID 0000.0001)  MDS_WRITE_FIELD: it,rec,kS,kL,kH=      50     1  15   1  15 file=wVeltave.0000000050
(PID.TID 0000.0001)  MDS_WRITE_FIELD: it,rec,kS,kL,kH=      50     1   1   1   1 file=Eta2tave.0000000050
(PID.TID 0000.0001)  MDS_WRITE_FIELD: it,rec,kS,kL,kH=      50     1  15   1  15 file=UTtave.0000000050
(PID.TID 0000.0001)  MDS_WRITE_FIELD: it,rec,kS,kL,kH=      50     1  15   1  15 file=VTtave.0000000050
(PID.TID 0000.0001)  MDS_WRITE_FIELD: it,rec,kS,kL,kH=      50     1  15   1  15 file=WTtave.0000000050
(PID.TID 0000.0001)  MDS_WRITE_FIELD: it,rec,kS,kL,kH=      50     1  15   1  15 file=UStave.0000000050
(PID.TID 0000.0001)  MDS_WRITE_FIELD: it,rec,kS,kL,kH=      50     1  15   1  15 file=VStave.0000000050
(PID.TID 0000.0001)  MDS_WRITE_FIELD: it,rec,kS,kL,kH=      50     1  15   1  15 file=WStave.0000000050
(PID.TID 0000.0001)  MDS_WRITE_FIELD: it,rec,kS,kL,kH=      50     1  15   1  15 file=TTtave.0000000050
(PID.TID 0000.0001)  MDS_WRITE_FIELD: it,rec,kS,kL,kH=      50     1  15   1  15 file=UUtave.0000000050
(PID.TID 0000.0001)  MDS_WRITE_FIELD: it,rec,kS,kL,kH=      50     1  15   1  15 file=VVtave.0000000050
(PID.TID 0000.0001)  MDS_WRITE_FIELD: it,rec,kS,kL,kH=      50     1  15   1  15 file=UVtave.0000000050
(PID.TID 0000.0001)  MDS_WRITE_FIELD: it,rec,kS,kL,kH=      50     1  15   1  15 file=Tdiftave.0000000050
(PID.TID 0000.0001)  MDS_WRITE_FIELD: it,rec,kS,kL,kH=      50     1  15   1  15 file=PhHytave.0000000050
(PID.TID 0000.0001)  MDS_WRITE_FIELD: it,rec,kS,kL,kH=      50     1   1   1   1 file=PHLtave.0000000050
(PID.TID 0000.0001)  MDS_WRITE_FIELD: it,rec,kS,kL,kH=      50     1   1   1   1 file=uFluxtave.0000000050
(PID.TID 0000.0001)  MDS_WRITE_FIELD: it,rec,kS,kL,kH=      50     1   1   1   1 file=vFluxtave.0000000050
(PID.TID 0000.0001)  MDS_WRITE_FIELD: it,rec,kS,kL,kH=      50     1   1   1   1 file=tFluxtave.0000000050
(PID.TID 0000.0001)  MDS_WRITE_FIELD: it,rec,kS,kL,kH=      50     1   1   1   1 file=sFluxtave.0000000050
(PID.TID 0000.0001)  MDS_WRITE_FIELD: it,rec,kS,kL,kH=      50     1   1   1   1 file=PHL2tave.0000000050
(PID.TID 0000.0001)  MDS_WRITE_FIELD: it,rec,kS,kL,kH=      50     1  15   1  15 file=Convtave.0000000050
(PID.TID 0000.0001) // Time-average data written, t-step        50
(PID.TID 0000.0001) 
(PID.TID 0000.0001)  MDS_WRITE_FIELD: it,rec,kS,kL,kH=      50     1  15   1  15 file=GM_Kwx-T.0000000050
(PID.TID 0000.0001)  MDS_WRITE_FIELD: it,rec,kS,kL,kH=      50     1  15   1  15 file=GM_Kwy-T.0000000050
(PID.TID 0000.0001)  MDS_WRITE_FIELD: it,rec,kS,kL,kH=      50     1  15   1  15 file=GM_Kwz-T.0000000050
(PID.TID 0000.0001)  MDS_WRITE_FIELD: it,rec,kS,kL,kH=      50     1  15   1  15 file=pickup_cd.0000000050
(PID.TID 0000.0001)  MDS_WRITE_FIELD: it,rec,kS,kL,kH=      50     2  15   1  15 file=pickup_cd.0000000050
(PID.TID 0000.0001)  MDS_WRITE_FIELD: it,rec,kS,kL,kH=      50     3  15   1  15 file=pickup_cd.0000000050
(PID.TID 0000.0001)  MDS_WRITE_FIELD: it,rec,kS,kL,kH=      50     4  15   1  15 file=pickup_cd.0000000050
(PID.TID 0000.0001)  MDS_WRITE_FIELD: it,rec,kS,kL,kH=      50    61   1   1   1 file=pickup_cd.0000000050
(PID.TID 0000.0001)  MDS_WRITE_FIELD: it,rec,kS,kL,kH=      50    -1  15   1  15 file=pickup.0000000050
(PID.TID 0000.0001)  MDS_WRITE_FIELD: it,rec,kS,kL,kH=      50    -2  15   1  15 file=pickup.0000000050
(PID.TID 0000.0001)  MDS_WRITE_FIELD: it,rec,kS,kL,kH=      50    -3  15   1  15 file=pickup.0000000050
(PID.TID 0000.0001)  MDS_WRITE_FIELD: it,rec,kS,kL,kH=      50    -4  15   1  15 file=pickup.0000000050
(PID.TID 0000.0001)  MDS_WRITE_FIELD: it,rec,kS,kL,kH=      50    -5  15   1  15 file=pickup.0000000050
(PID.TID 0000.0001)  MDS_WRITE_FIELD: it,rec,kS,kL,kH=      50    -6  15   1  15 file=pickup.0000000050
(PID.TID 0000.0001)  MDS_WRITE_FIELD: it,rec,kS,kL,kH=      50    -7  15   1  15 file=pickup.0000000050
(PID.TID 0000.0001)  MDS_WRITE_FIELD: it,rec,kS,kL,kH=      50    -8  15   1  15 file=pickup.0000000050
(PID.TID 0000.0001)  MDS_WRITE_FIELD: it,rec,kS,kL,kH=      50  -121   1   1   1 file=pickup.0000000050
(PID.TID 0000.0001)  MDS_WRITE_FIELD: it,rec,kS,kL,kH=      50  -122   1   1   1 file=pickup.0000000050
(PID.TID 0000.0001)  MDS_WRITE_FIELD: it,rec,kS,kL,kH=      50  -123   1   1   1 file=pickup.0000000050
(PID.TID 0000.0001) %CHECKPOINT        50 0000000050
 EXTERNAL_FIELDS_LOAD,        50 : iP,iLd,i0,i1=    2    3    2    3 ; Wght=  0.8333333333  0.1666666667
 EXTERNAL_FIELDS_LOAD: (fu0,1),fu,fv= -1.4435E-02 -2.7199E-02 -1.6562E-02 -1.4793E-02
 EXTERNAL_FIELDS_LOAD: SST,SSS,Q,E-P= -4.7386E-01  3.4447E+01  2.3630E+02  8.4945E-06
DEBUG_STATS_RL:          Uvel (THERMODYNAMICS)  min= -1.39743534262990E-01
DEBUG_STATS_RL:          Uvel (THERMODYNAMICS)  max=  1.84704612449542E-01
DEBUG_STATS_RL:          Uvel (THERMODYNAMICS) mean=  4.50167031804432E-03
DEBUG_STATS_RL:          Uvel (THERMODYNAMICS) S.D.=  2.36097490420739E-02
DEBUG_STATS_RL:          Vvel (THERMODYNAMICS)  min= -1.03375277706566E-01
DEBUG_STATS_RL:          Vvel (THERMODYNAMICS)  max=  1.34890259877861E-01
DEBUG_STATS_RL:          Vvel (THERMODYNAMICS) mean=  1.57002588114206E-03
DEBUG_STATS_RL:          Vvel (THERMODYNAMICS) S.D.=  1.44156590168347E-02
DEBUG_STATS_RL:          Wvel (THERMODYNAMICS)  min= -1.07816731702515E-04
DEBUG_STATS_RL:          Wvel (THERMODYNAMICS)  max=  1.42520785020244E-04
DEBUG_STATS_RL:          Wvel (THERMODYNAMICS) mean=  2.88275933951449E-08
DEBUG_STATS_RL:          Wvel (THERMODYNAMICS) S.D.=  1.16561645308318E-05
DEBUG_STATS_RL:         Theta (THERMODYNAMICS)  min= -1.98228262042565E+00
DEBUG_STATS_RL:         Theta (THERMODYNAMICS)  max=  3.03897838659265E+01
DEBUG_STATS_RL:         Theta (THERMODYNAMICS) mean=  3.22828937230478E+00
DEBUG_STATS_RL:         Theta (THERMODYNAMICS) S.D.=  5.87216766295386E+00
DEBUG_STATS_RL:          Salt (THERMODYNAMICS)  min=  9.99999999999997E-03
DEBUG_STATS_RL:          Salt (THERMODYNAMICS)  max=  3.74711273537879E+01
DEBUG_STATS_RL:          Salt (THERMODYNAMICS) mean=  1.88549375725007E+01
DEBUG_STATS_RL:          Salt (THERMODYNAMICS) S.D.=  1.73004550251679E+01
DEBUG_STATS_RL:         GtNm1 (THERMODYNAMICS)  min= -4.92734318850839E-06
DEBUG_STATS_RL:         GtNm1 (THERMODYNAMICS)  max=  2.79417337871985E-06
DEBUG_STATS_RL:         GtNm1 (THERMODYNAMICS) mean=  4.90244925621714E-09
DEBUG_STATS_RL:         GtNm1 (THERMODYNAMICS) S.D.=  1.89963836183820E-07
DEBUG_STATS_RL:         GsNm1 (THERMODYNAMICS)  min= -4.79286611028390E-07
DEBUG_STATS_RL:         GsNm1 (THERMODYNAMICS)  max=  3.22621190865947E-07
DEBUG_STATS_RL:         GsNm1 (THERMODYNAMICS) mean= -1.08186403330438E-11
DEBUG_STATS_RL:         GsNm1 (THERMODYNAMICS) S.D.=  1.85956411702742E-08
DEBUG_STATS_RL:                EtaN (DYNAMICS)  min= -1.74937821028571E+00
DEBUG_STATS_RL:                EtaN (DYNAMICS)  max=  8.88759569598583E-01
DEBUG_STATS_RL:                EtaN (DYNAMICS) mean= -1.81619914274324E-01
DEBUG_STATS_RL:                EtaN (DYNAMICS) S.D.=  6.94880292183070E-01
DEBUG_STATS_RL:                Uvel (DYNAMICS)  min= -1.39743534262990E-01
DEBUG_STATS_RL:                Uvel (DYNAMICS)  max=  1.84704612449542E-01
DEBUG_STATS_RL:                Uvel (DYNAMICS) mean=  4.50167031804432E-03
DEBUG_STATS_RL:                Uvel (DYNAMICS) S.D.=  2.36097490420739E-02
DEBUG_STATS_RL:                Vvel (DYNAMICS)  min= -1.03375277706566E-01
DEBUG_STATS_RL:                Vvel (DYNAMICS)  max=  1.34890259877861E-01
DEBUG_STATS_RL:                Vvel (DYNAMICS) mean=  1.57002588114206E-03
DEBUG_STATS_RL:                Vvel (DYNAMICS) S.D.=  1.44156590168347E-02
DEBUG_STATS_RL:                Wvel (DYNAMICS)  min= -1.07816731702515E-04
DEBUG_STATS_RL:                Wvel (DYNAMICS)  max=  1.42520785020244E-04
DEBUG_STATS_RL:                Wvel (DYNAMICS) mean=  2.88275933951449E-08
DEBUG_STATS_RL:                Wvel (DYNAMICS) S.D.=  1.16561645308318E-05
DEBUG_STATS_RL:               Theta (DYNAMICS)  min= -1.98228262042565E+00
DEBUG_STATS_RL:               Theta (DYNAMICS)  max=  3.03897838659265E+01
DEBUG_STATS_RL:               Theta (DYNAMICS) mean=  3.22828937230478E+00
DEBUG_STATS_RL:               Theta (DYNAMICS) S.D.=  5.87216766295386E+00
DEBUG_STATS_RL:                Salt (DYNAMICS)  min=  9.99999999999997E-03
DEBUG_STATS_RL:                Salt (DYNAMICS)  max=  3.74711273537879E+01
DEBUG_STATS_RL:                Salt (DYNAMICS) mean=  1.88549375725007E+01
DEBUG_STATS_RL:                Salt (DYNAMICS) S.D.=  1.73004550251679E+01
DEBUG_STATS_RL:                  Gu (DYNAMICS)  min= -1.37388524544131E-01
DEBUG_STATS_RL:                  Gu (DYNAMICS)  max=  1.89700018841284E-01
DEBUG_STATS_RL:                  Gu (DYNAMICS) mean=  4.50346307060623E-03
DEBUG_STATS_RL:                  Gu (DYNAMICS) S.D.=  2.36053313877163E-02
DEBUG_STATS_RL:                  Gv (DYNAMICS)  min= -1.02321649854764E-01
DEBUG_STATS_RL:                  Gv (DYNAMICS)  max=  1.38435368667298E-01
DEBUG_STATS_RL:                  Gv (DYNAMICS) mean=  3.91487774603243E-03
DEBUG_STATS_RL:                  Gv (DYNAMICS) S.D.=  1.58958337926450E-02
DEBUG_STATS_RL:               GuNm1 (DYNAMICS)  min= -9.47170611276157E-06
DEBUG_STATS_RL:               GuNm1 (DYNAMICS)  max=  8.94907570464685E-06
DEBUG_STATS_RL:               GuNm1 (DYNAMICS) mean= -3.07587355982838E-09
DEBUG_STATS_RL:               GuNm1 (DYNAMICS) S.D.=  1.18128480753714E-06
DEBUG_STATS_RL:               GvNm1 (DYNAMICS)  min= -9.41323049490067E-06
DEBUG_STATS_RL:               GvNm1 (DYNAMICS)  max=  1.64196998727968E-05
DEBUG_STATS_RL:               GvNm1 (DYNAMICS) mean=  7.45017167169582E-07
DEBUG_STATS_RL:               GvNm1 (DYNAMICS) S.D.=  2.60738891661721E-06
DEBUG_STATS_RL:               GtNm1 (DYNAMICS)  min= -4.92734318850839E-06
DEBUG_STATS_RL:               GtNm1 (DYNAMICS)  max=  2.79417337871985E-06
DEBUG_STATS_RL:               GtNm1 (DYNAMICS) mean=  4.90244925621714E-09
DEBUG_STATS_RL:               GtNm1 (DYNAMICS) S.D.=  1.89963836183820E-07
DEBUG_STATS_RL:               GsNm1 (DYNAMICS)  min= -4.79286611028390E-07
DEBUG_STATS_RL:               GsNm1 (DYNAMICS)  max=  3.22621190865947E-07
DEBUG_STATS_RL:               GsNm1 (DYNAMICS) mean= -1.08186403330438E-11
DEBUG_STATS_RL:               GsNm1 (DYNAMICS) S.D.=  1.85956411702742E-08
DEBUG_STATS_RL:    cg2d_b (SOLVE_FOR_PRESSURE)  min= -2.03651736033689E+04
DEBUG_STATS_RL:    cg2d_b (SOLVE_FOR_PRESSURE)  max=  2.40044476434566E+04
DEBUG_STATS_RL:    cg2d_b (SOLVE_FOR_PRESSURE) mean=  3.69002117479464E+00
DEBUG_STATS_RL:    cg2d_b (SOLVE_FOR_PRESSURE) S.D.=  3.72917338741495E+03
 cg2d: Sum(rhs),rhsMax =   3.55867343691064E-01  1.57667639134754E+00
(PID.TID 0000.0001)  cg2d: iter=     1 ; resid.=  1.21144690686308E-01
(PID.TID 0000.0001)  cg2d: iter=     2 ; resid.=  1.03994891658330E-01
(PID.TID 0000.0001)  cg2d: iter=     3 ; resid.=  1.04575555398038E-01
(PID.TID 0000.0001)  cg2d: iter=     4 ; resid.=  8.63942514285868E-02
(PID.TID 0000.0001)  cg2d: iter=     5 ; resid.=  8.59527238391462E-02
(PID.TID 0000.0001)  cg2d: iter=     6 ; resid.=  8.04390926123828E-02
(PID.TID 0000.0001)  cg2d: iter=     7 ; resid.=  6.54224544868141E-02
(PID.TID 0000.0001)  cg2d: iter=     8 ; resid.=  4.86144026735789E-02
(PID.TID 0000.0001)  cg2d: iter=     9 ; resid.=  3.57849342339422E-02
(PID.TID 0000.0001)  cg2d: iter=    10 ; resid.=  2.88521576521139E-02
(PID.TID 0000.0001)  cg2d: iter=    11 ; resid.=  2.56108715297725E-02
(PID.TID 0000.0001)  cg2d: iter=    12 ; resid.=  2.24562660386343E-02
(PID.TID 0000.0001)  cg2d: iter=    13 ; resid.=  1.92180599719966E-02
(PID.TID 0000.0001)  cg2d: iter=    14 ; resid.=  1.65316426876983E-02
(PID.TID 0000.0001)  cg2d: iter=    15 ; resid.=  1.23749006392404E-02
(PID.TID 0000.0001)  cg2d: iter=    16 ; resid.=  1.01161113459843E-02
(PID.TID 0000.0001)  cg2d: iter=    17 ; resid.=  9.12990884298001E-03
(PID.TID 0000.0001)  cg2d: iter=    18 ; resid.=  7.88799556362161E-03
(PID.TID 0000.0001)  cg2d: iter=    19 ; resid.=  6.59283259143837E-03
(PID.TID 0000.0001)  cg2d: iter=    20 ; resid.=  5.16859966336376E-03
(PID.TID 0000.0001)  cg2d: iter=    21 ; resid.=  4.21503343313390E-03
(PID.TID 0000.0001)  cg2d: iter=    22 ; resid.=  3.72955456897857E-03
(PID.TID 0000.0001)  cg2d: iter=    23 ; resid.=  3.06954186501629E-03
(PID.TID 0000.0001)  cg2d: iter=    24 ; resid.=  2.60402931701957E-03
(PID.TID 0000.0001)  cg2d: iter=    25 ; resid.=  2.28886383137793E-03
(PID.TID 0000.0001)  cg2d: iter=    26 ; resid.=  1.76021098010625E-03
(PID.TID 0000.0001)  cg2d: iter=    27 ; resid.=  1.51740369639880E-03
(PID.TID 0000.0001)  cg2d: iter=    28 ; resid.=  1.22055854734516E-03
(PID.TID 0000.0001)  cg2d: iter=    29 ; resid.=  9.03901393637500E-04
(PID.TID 0000.0001)  cg2d: iter=    30 ; resid.=  7.42785552303104E-04
(PID.TID 0000.0001)  cg2d: iter=    31 ; resid.=  6.52012125682743E-04
(PID.TID 0000.0001)  cg2d: iter=    32 ; resid.=  5.05009314654919E-04
(PID.TID 0000.0001)  cg2d: iter=    33 ; resid.=  4.12696366389502E-04
(PID.TID 0000.0001)  cg2d: iter=    34 ; resid.=  3.52286449030504E-04
(PID.TID 0000.0001)  cg2d: iter=    35 ; resid.=  2.96115944700173E-04
(PID.TID 0000.0001)  cg2d: iter=    36 ; resid.=  2.63392114471052E-04
(PID.TID 0000.0001)  cg2d: iter=    37 ; resid.=  2.18025538601452E-04
(PID.TID 0000.0001)  cg2d: iter=    38 ; resid.=  1.91032000456594E-04
(PID.TID 0000.0001)  cg2d: iter=    39 ; resid.=  1.65909308183033E-04
(PID.TID 0000.0001)  cg2d: iter=    40 ; resid.=  1.35904027345369E-04
(PID.TID 0000.0001)  cg2d: iter=    41 ; resid.=  1.15764711934290E-04
(PID.TID 0000.0001)  cg2d: iter=    42 ; resid.=  1.03615018406474E-04
(PID.TID 0000.0001)  cg2d: iter=    43 ; resid.=  8.74767345669504E-05
(PID.TID 0000.0001)  cg2d: iter=    44 ; resid.=  7.54947806585935E-05
(PID.TID 0000.0001)  cg2d: iter=    45 ; resid.=  6.28652883332593E-05
(PID.TID 0000.0001)  cg2d: iter=    46 ; resid.=  4.93356300142568E-05
(PID.TID 0000.0001)  cg2d: iter=    47 ; resid.=  4.14027105589836E-05
(PID.TID 0000.0001)  cg2d: iter=    48 ; resid.=  3.13115744624896E-05
(PID.TID 0000.0001)  cg2d: iter=    49 ; resid.=  2.48398553849905E-05
(PID.TID 0000.0001)  cg2d: iter=    50 ; resid.=  2.20150215165629E-05
(PID.TID 0000.0001)  cg2d: iter=    51 ; resid.=  1.93066567435339E-05
(PID.TID 0000.0001)  cg2d: iter=    52 ; resid.=  1.87592122813528E-05
(PID.TID 0000.0001)  cg2d: iter=    53 ; resid.=  1.57377999888815E-05
(PID.TID 0000.0001)  cg2d: iter=    54 ; resid.=  1.21550672950334E-05
(PID.TID 0000.0001)  cg2d: iter=    55 ; resid.=  1.02184348355948E-05
(PID.TID 0000.0001)  cg2d: iter=    56 ; resid.=  8.48522721242479E-06
(PID.TID 0000.0001)  cg2d: iter=    57 ; resid.=  6.51303463728677E-06
(PID.TID 0000.0001)  cg2d: iter=    58 ; resid.=  5.36319647870480E-06
(PID.TID 0000.0001)  cg2d: iter=    59 ; resid.=  4.32222558737037E-06
(PID.TID 0000.0001)  cg2d: iter=    60 ; resid.=  3.22972886007766E-06
(PID.TID 0000.0001)  cg2d: iter=    61 ; resid.=  2.71052825035061E-06
(PID.TID 0000.0001)  cg2d: iter=    62 ; resid.=  2.34406310790746E-06
(PID.TID 0000.0001)  cg2d: iter=    63 ; resid.=  1.99292495942945E-06
(PID.TID 0000.0001)  cg2d: iter=    64 ; resid.=  1.76005719301628E-06
(PID.TID 0000.0001)  cg2d: iter=    65 ; resid.=  1.34263537615858E-06
(PID.TID 0000.0001)  cg2d: iter=    66 ; resid.=  1.11092312374666E-06
(PID.TID 0000.0001)  cg2d: iter=    67 ; resid.=  9.56322455347237E-07
(PID.TID 0000.0001)  cg2d: iter=    68 ; resid.=  7.82652294385791E-07
(PID.TID 0000.0001)  cg2d: iter=    69 ; resid.=  6.33208778068858E-07
(PID.TID 0000.0001)  cg2d: iter=    70 ; resid.=  5.48055364175263E-07
(PID.TID 0000.0001)  cg2d: iter=    71 ; resid.=  4.59199854561443E-07
(PID.TID 0000.0001)  cg2d: iter=    72 ; resid.=  3.75476126410897E-07
(PID.TID 0000.0001)  cg2d: iter=    73 ; resid.=  3.23161037209554E-07
(PID.TID 0000.0001)  cg2d: iter=    74 ; resid.=  2.77822332326465E-07
(PID.TID 0000.0001)  cg2d: iter=    75 ; resid.=  2.27286395332176E-07
(PID.TID 0000.0001)  cg2d: iter=    76 ; resid.=  1.82267046926579E-07
(PID.TID 0000.0001)  cg2d: iter=    77 ; resid.=  1.62621597817150E-07
(PID.TID 0000.0001)  cg2d: iter=    78 ; resid.=  1.25426671279564E-07
(PID.TID 0000.0001)  cg2d: iter=    79 ; resid.=  9.32044625541852E-08
(PID.TID 0000.0001)  cg2d: iter=    80 ; resid.=  7.25150231836618E-08
(PID.TID 0000.0001)  cg2d: iter=    81 ; resid.=  5.60860875586379E-08
(PID.TID 0000.0001)  cg2d: iter=    82 ; resid.=  4.47054474260175E-08
(PID.TID 0000.0001)  cg2d: iter=    83 ; resid.=  3.56167371586112E-08
(PID.TID 0000.0001)  cg2d: iter=    84 ; resid.=  2.52072728368758E-08
(PID.TID 0000.0001)  cg2d: iter=    85 ; resid.=  1.95761939360690E-08
(PID.TID 0000.0001)  cg2d: iter=    86 ; resid.=  1.55000983995942E-08
(PID.TID 0000.0001)  cg2d: iter=    87 ; resid.=  1.16028329034661E-08
(PID.TID 0000.0001)  cg2d: iter=    88 ; resid.=  9.08974349169811E-09
(PID.TID 0000.0001)  cg2d: iter=    89 ; resid.=  7.93217698034130E-09
(PID.TID 0000.0001)  cg2d: iter=    90 ; resid.=  5.78966279491538E-09
(PID.TID 0000.0001)  cg2d: iter=    91 ; resid.=  4.53948001689700E-09
(PID.TID 0000.0001)  cg2d: iter=    92 ; resid.=  3.50304761549314E-09
(PID.TID 0000.0001)  cg2d: iter=    93 ; resid.=  2.61034365579737E-09
(PID.TID 0000.0001)  cg2d: iter=    94 ; resid.=  2.08660536153875E-09
(PID.TID 0000.0001)  cg2d: iter=    95 ; resid.=  1.59917343735725E-09
(PID.TID 0000.0001)  cg2d: iter=    96 ; resid.=  1.08006113541149E-09
(PID.TID 0000.0001)  cg2d: iter=    97 ; resid.=  7.85854214298892E-10
(PID.TID 0000.0001)  cg2d: iter=    98 ; resid.=  5.98023676003809E-10
(PID.TID 0000.0001)  cg2d: iter=    99 ; resid.=  4.66756922128368E-10
(PID.TID 0000.0001)  cg2d: iter=   100 ; resid.=  4.33241815189817E-10
(PID.TID 0000.0001)  cg2d: iter=   101 ; resid.=  3.49751571484847E-10
(PID.TID 0000.0001)  cg2d: iter=   102 ; resid.=  2.97233271892229E-10
(PID.TID 0000.0001)  cg2d: iter=   103 ; resid.=  2.56093266969391E-10
(PID.TID 0000.0001)  cg2d: iter=   104 ; resid.=  2.18764108325425E-10
(PID.TID 0000.0001)  cg2d: iter=   105 ; resid.=  1.84920076689585E-10
(PID.TID 0000.0001)  cg2d: iter=   106 ; resid.=  1.64076375442450E-10
(PID.TID 0000.0001)  cg2d: iter=   107 ; resid.=  1.22189873017787E-10
(PID.TID 0000.0001)  cg2d: iter=   108 ; resid.=  8.85452149580477E-11
(PID.TID 0000.0001)  cg2d: iter=   109 ; resid.=  6.44448360389506E-11
(PID.TID 0000.0001)  cg2d: iter=   110 ; resid.=  5.01970253151276E-11
(PID.TID 0000.0001)  cg2d: iter=   111 ; resid.=  4.06110949526495E-11
(PID.TID 0000.0001)  cg2d: iter=   112 ; resid.=  3.37279028588340E-11
(PID.TID 0000.0001)  cg2d: iter=   113 ; resid.=  2.54324075459932E-11
(PID.TID 0000.0001)  cg2d: iter=   114 ; resid.=  2.11042090039027E-11
(PID.TID 0000.0001)  cg2d: iter=   115 ; resid.=  1.65913601300128E-11
(PID.TID 0000.0001)  cg2d: iter=   116 ; resid.=  1.18470785858994E-11
(PID.TID 0000.0001)  cg2d: iter=   117 ; resid.=  9.36692784647052E-12
(PID.TID 0000.0001)  cg2d: iter=   118 ; resid.=  7.36899710339251E-12
(PID.TID 0000.0001)  cg2d: iter=   119 ; resid.=  5.71582191997373E-12
(PID.TID 0000.0001)  cg2d: iter=   120 ; resid.=  3.97867964873403E-12
(PID.TID 0000.0001)  cg2d: iter=   121 ; resid.=  2.74860959359651E-12
(PID.TID 0000.0001)  cg2d: iter=   122 ; resid.=  2.21794016388811E-12
(PID.TID 0000.0001)  cg2d: iter=   123 ; resid.=  1.80751507184898E-12
(PID.TID 0000.0001)  cg2d: iter=   124 ; resid.=  1.30053670278058E-12
(PID.TID 0000.0001)  cg2d: iter=   125 ; resid.=  9.50151499836148E-13
(PID.TID 0000.0001)  cg2d: iter=   126 ; resid.=  6.98580331390913E-13
(PID.TID 0000.0001)  cg2d: iter=   127 ; resid.=  4.82745666027641E-13
(PID.TID 0000.0001)  cg2d: iter=   128 ; resid.=  3.50530463855485E-13
(PID.TID 0000.0001)  cg2d: iter=   129 ; resid.=  2.68674109755165E-13
(PID.TID 0000.0001)  cg2d: iter=   130 ; resid.=  2.02475836280839E-13
(PID.TID 0000.0001)  cg2d: iter=   131 ; resid.=  1.55190329718973E-13
(PID.TID 0000.0001)  cg2d: iter=   132 ; resid.=  1.13918247030268E-13
(PID.TID 0000.0001)  cg2d: iter=   133 ; resid.=  9.53310384932230E-14
DEBUG_STATS_RL:    cg2d_x (SOLVE_FOR_PRESSURE)  min= -1.71964536269828E+01
DEBUG_STATS_RL:    cg2d_x (SOLVE_FOR_PRESSURE)  max=  8.42543511550577E+00
DEBUG_STATS_RL:    cg2d_x (SOLVE_FOR_PRESSURE) mean= -1.77635592264763E+00
DEBUG_STATS_RL:    cg2d_x (SOLVE_FOR_PRESSURE) S.D.=  6.76952230562508E+00
(PID.TID 0000.0001)      cg2d_init_res =   3.21786959889943E-01
(PID.TID 0000.0001)      cg2d_iters(min,last) =      -1     133
(PID.TID 0000.0001)      cg2d_last_res =   9.53310384932230E-14
(PID.TID 0000.0001) // =======================================================
(PID.TID 0000.0001) // Begin MONITOR dynamic field statistics
(PID.TID 0000.0001) // =======================================================
(PID.TID 0000.0001) %MON time_tsnumber                =                    51
(PID.TID 0000.0001) %MON time_secondsf                =   4.4064000000000E+06
(PID.TID 0000.0001) %MON dynstat_eta_max              =   8.5886188741138E-01
(PID.TID 0000.0001) %MON dynstat_eta_min              =  -1.7529514400594E+00
(PID.TID 0000.0001) %MON dynstat_eta_mean             =  -3.8500795483779E-03
(PID.TID 0000.0001) %MON dynstat_eta_sd               =   5.9817506906654E-01
(PID.TID 0000.0001) %MON dynstat_eta_del2             =   2.2849674758876E-03
(PID.TID 0000.0001) %MON dynstat_uvel_max             =   1.8435076741321E-01
(PID.TID 0000.0001) %MON dynstat_uvel_min             =  -1.3819025442952E-01
(PID.TID 0000.0001) %MON dynstat_uvel_mean            =   1.3305638385313E-03
(PID.TID 0000.0001) %MON dynstat_uvel_sd              =   1.4797223242519E-02
(PID.TID 0000.0001) %MON dynstat_uvel_del2            =   8.9972490225728E-05
(PID.TID 0000.0001) %MON dynstat_vvel_max             =   1.3724383313692E-01
(PID.TID 0000.0001) %MON dynstat_vvel_min             =  -1.0120283487272E-01
(PID.TID 0000.0001) %MON dynstat_vvel_mean            =   2.9562802426349E-05
(PID.TID 0000.0001) %MON dynstat_vvel_sd              =   8.9137197598455E-03
(PID.TID 0000.0001) %MON dynstat_vvel_del2            =   7.6413247349654E-05
(PID.TID 0000.0001) %MON dynstat_wvel_max             =   1.5126011682102E-04
(PID.TID 0000.0001) %MON dynstat_wvel_min             =  -1.0358461948204E-04
(PID.TID 0000.0001) %MON dynstat_wvel_mean            =   7.7182745502218E-24
(PID.TID 0000.0001) %MON dynstat_wvel_sd              =   1.2941297717395E-05
(PID.TID 0000.0001) %MON dynstat_wvel_del2            =   1.3213294307016E-07
(PID.TID 0000.0001) %MON dynstat_theta_max            =   3.0389783865927E+01
(PID.TID 0000.0001) %MON dynstat_theta_min            =  -1.9822826204256E+00
(PID.TID 0000.0001) %MON dynstat_theta_mean           =   3.6326665729402E+00
(PID.TID 0000.0001) %MON dynstat_theta_sd             =   4.4216515556028E+00
(PID.TID 0000.0001) %MON dynstat_theta_del2           =   4.7905129090134E-03
(PID.TID 0000.0001) %MON dynstat_salt_max             =   3.7471127353788E+01
(PID.TID 0000.0001) %MON dynstat_salt_min             =   2.9858243560543E+01
(PID.TID 0000.0001) %MON dynstat_salt_mean            =   3.4727990014054E+01
(PID.TID 0000.0001) %MON dynstat_salt_sd              =   2.9639445802877E-01
(PID.TID 0000.0001) %MON dynstat_salt_del2            =   9.8689475431590E-04
(PID.TID 0000.0001) %MON dynstat_sst_max              =   3.0389783865927E+01
(PID.TID 0000.0001) %MON dynstat_sst_min              =  -1.9822826204256E+00
(PID.TID 0000.0001) %MON dynstat_sst_mean             =   1.8945926361285E+01
(PID.TID 0000.0001) %MON dynstat_sst_sd               =   9.0248044794369E+00
(PID.TID 0000.0001) %MON dynstat_sst_del2             =   2.7450670585163E-02
(PID.TID 0000.0001) %MON dynstat_sss_max              =   3.7447997558542E+01
(PID.TID 0000.0001) %MON dynstat_sss_min              =   2.9858243560543E+01
(PID.TID 0000.0001) %MON dynstat_sss_mean             =   3.4853435145591E+01
(PID.TID 0000.0001) %MON dynstat_sss_sd               =   9.7816446825119E-01
(PID.TID 0000.0001) %MON dynstat_sss_del2             =   7.9090140421822E-03
(PID.TID 0000.0001) %MON forcing_qnet_max             =   3.4446148173014E+02
(PID.TID 0000.0001) %MON forcing_qnet_min             =  -1.7133757273356E+02
(PID.TID 0000.0001) %MON forcing_qnet_mean            =  -1.2848553480810E+01
(PID.TID 0000.0001) %MON forcing_qnet_sd              =   7.2593681633689E+01
(PID.TID 0000.0001) %MON forcing_qnet_del2            =   9.2255901635128E-01
(PID.TID 0000.0001) %MON forcing_qsw_max              =   0.0000000000000E+00
(PID.TID 0000.0001) %MON forcing_qsw_min              =   0.0000000000000E+00
(PID.TID 0000.0001) %MON forcing_qsw_mean             =   0.0000000000000E+00
(PID.TID 0000.0001) %MON forcing_qsw_sd               =   0.0000000000000E+00
(PID.TID 0000.0001) %MON forcing_qsw_del2             =   0.0000000000000E+00
(PID.TID 0000.0001) %MON forcing_empmr_max            =   6.9252730365103E-05
(PID.TID 0000.0001) %MON forcing_empmr_min            =  -7.4454014509229E-05
(PID.TID 0000.0001) %MON forcing_empmr_mean           =   8.7795932553760E-07
(PID.TID 0000.0001) %MON forcing_empmr_sd             =   2.7556269282498E-05
(PID.TID 0000.0001) %MON forcing_empmr_del2           =   3.5383860859280E-07
(PID.TID 0000.0001) %MON forcing_fu_max               =   3.1125728785992E-01
(PID.TID 0000.0001) %MON forcing_fu_min               =  -2.4265549828609E-01
(PID.TID 0000.0001) %MON forcing_fu_mean              =   1.8101739563928E-02
(PID.TID 0000.0001) %MON forcing_fu_sd                =   9.3253165137727E-02
(PID.TID 0000.0001) %MON forcing_fu_del2              =   7.1687477636935E-04
(PID.TID 0000.0001) %MON forcing_fv_max               =   1.7315150362750E-01
(PID.TID 0000.0001) %MON forcing_fv_min               =  -1.9224907457829E-01
(PID.TID 0000.0001) %MON forcing_fv_mean              =  -7.2688666908077E-03
(PID.TID 0000.0001) %MON forcing_fv_sd                =   4.3596000384561E-02
(PID.TID 0000.0001) %MON forcing_fv_del2              =   5.0613264128046E-04
(PID.TID 0000.0001) %MON trAdv_CFL_u_max              =   4.8298031812884E-02
(PID.TID 0000.0001) %MON trAdv_CFL_v_max              =   2.9109435787166E-02
(PID.TID 0000.0001) %MON trAdv_CFL_w_max              =   3.2121950410680E-02
(PID.TID 0000.0001) %MON advcfl_uvel_max              =   4.8195716702371E-02
(PID.TID 0000.0001) %MON advcfl_vvel_max              =   2.6664275652052E-02
(PID.TID 0000.0001) %MON advcfl_wvel_max              =   3.7557885784685E-02
(PID.TID 0000.0001) %MON advcfl_W_hf_max              =   4.5606004167118E-02
(PID.TID 0000.0001) %MON pe_b_mean                    =   4.5788435847965E-04
(PID.TID 0000.0001) %MON ke_max                       =   1.6765148581230E-02
(PID.TID 0000.0001) %MON ke_mean                      =   1.3595112427747E-04
(PID.TID 0000.0001) %MON ke_vol                       =   1.3226782436723E+18
(PID.TID 0000.0001) %MON vort_r_min                   =  -4.8901033376197E-07
(PID.TID 0000.0001) %MON vort_r_max                   =   4.3695292557505E-07
(PID.TID 0000.0001) %MON vort_a_mean                  =  -2.5274806996714E-05
(PID.TID 0000.0001) %MON vort_a_sd                    =   7.3604483333902E-05
(PID.TID 0000.0001) %MON vort_p_mean                  =  -3.1845655294553E-05
(PID.TID 0000.0001) %MON vort_p_sd                    =   1.3162422171581E-04
(PID.TID 0000.0001) %MON surfExpan_theta_mean         =   5.0645725243339E-08
(PID.TID 0000.0001) %MON surfExpan_salt_mean          =   1.2277387265657E-07
(PID.TID 0000.0001) // =======================================================
(PID.TID 0000.0001) // End MONITOR dynamic field statistics
(PID.TID 0000.0001) // =======================================================
 EXTERNAL_FIELDS_LOAD,        51 : iP,iLd,i0,i1=    2    3    2    3 ; Wght=  0.8000000000  0.2000000000
 EXTERNAL_FIELDS_LOAD: (fu0,1),fu,fv= -1.4435E-02 -2.7199E-02 -1.6988E-02 -1.4224E-02
 EXTERNAL_FIELDS_LOAD: SST,SSS,Q,E-P= -4.6227E-01  3.4453E+01  2.3546E+02  8.5179E-06
DEBUG_STATS_RL:          Uvel (THERMODYNAMICS)  min= -1.38190254429518E-01
DEBUG_STATS_RL:          Uvel (THERMODYNAMICS)  max=  1.84350767413212E-01
DEBUG_STATS_RL:          Uvel (THERMODYNAMICS) mean=  4.62200894487802E-03
DEBUG_STATS_RL:          Uvel (THERMODYNAMICS) S.D.=  2.32647279109304E-02
DEBUG_STATS_RL:          Vvel (THERMODYNAMICS)  min= -1.01202834872725E-01
DEBUG_STATS_RL:          Vvel (THERMODYNAMICS)  max=  1.37243833136919E-01
DEBUG_STATS_RL:          Vvel (THERMODYNAMICS) mean=  1.59912666633947E-03
DEBUG_STATS_RL:          Vvel (THERMODYNAMICS) S.D.=  1.43881143538165E-02
DEBUG_STATS_RL:          Wvel (THERMODYNAMICS)  min= -1.03584619482037E-04
DEBUG_STATS_RL:          Wvel (THERMODYNAMICS)  max=  1.51260116821022E-04
DEBUG_STATS_RL:          Wvel (THERMODYNAMICS) mean=  4.13279379255398E-08
DEBUG_STATS_RL:          Wvel (THERMODYNAMICS) S.D.=  1.14656175137308E-05
DEBUG_STATS_RL:         Theta (THERMODYNAMICS)  min= -1.98052916939334E+00
DEBUG_STATS_RL:         Theta (THERMODYNAMICS)  max=  3.03983652559083E+01
DEBUG_STATS_RL:         Theta (THERMODYNAMICS) mean=  3.22845991430722E+00
DEBUG_STATS_RL:         Theta (THERMODYNAMICS) S.D.=  5.87282065918006E+00
DEBUG_STATS_RL:          Salt (THERMODYNAMICS)  min=  9.99999999999997E-03
DEBUG_STATS_RL:          Salt (THERMODYNAMICS)  max=  3.74718726641086E+01
DEBUG_STATS_RL:          Salt (THERMODYNAMICS) mean=  1.88549359591649E+01
DEBUG_STATS_RL:          Salt (THERMODYNAMICS) S.D.=  1.73004538250276E+01
DEBUG_STATS_RL:         GtNm1 (THERMODYNAMICS)  min= -5.76231049806356E-06
DEBUG_STATS_RL:         GtNm1 (THERMODYNAMICS)  max=  3.04329585618712E-06
DEBUG_STATS_RL:         GtNm1 (THERMODYNAMICS) mean=  4.16356209215047E-09
DEBUG_STATS_RL:         GtNm1 (THERMODYNAMICS) S.D.=  1.89101712268010E-07
DEBUG_STATS_RL:         GsNm1 (THERMODYNAMICS)  min= -5.65765714438118E-07
DEBUG_STATS_RL:         GsNm1 (THERMODYNAMICS)  max=  3.71245263895844E-07
DEBUG_STATS_RL:         GsNm1 (THERMODYNAMICS) mean= -7.68983234010690E-11
DEBUG_STATS_RL:         GsNm1 (THERMODYNAMICS) S.D.=  1.87188296357001E-08
DEBUG_STATS_RL:                EtaN (DYNAMICS)  min= -1.75295144005941E+00
DEBUG_STATS_RL:                EtaN (DYNAMICS)  max=  8.58861887411383E-01
DEBUG_STATS_RL:                EtaN (DYNAMICS) mean= -1.81076036967141E-01
DEBUG_STATS_RL:                EtaN (DYNAMICS) S.D.=  6.90063435843538E-01
DEBUG_STATS_RL:                Uvel (DYNAMICS)  min= -1.38190254429518E-01
DEBUG_STATS_RL:                Uvel (DYNAMICS)  max=  1.84350767413212E-01
DEBUG_STATS_RL:                Uvel (DYNAMICS) mean=  4.62200894487802E-03
DEBUG_STATS_RL:                Uvel (DYNAMICS) S.D.=  2.32647279109304E-02
DEBUG_STATS_RL:                Vvel (DYNAMICS)  min= -1.01202834872725E-01
DEBUG_STATS_RL:                Vvel (DYNAMICS)  max=  1.37243833136919E-01
DEBUG_STATS_RL:                Vvel (DYNAMICS) mean=  1.59912666633947E-03
DEBUG_STATS_RL:                Vvel (DYNAMICS) S.D.=  1.43881143538165E-02
DEBUG_STATS_RL:                Wvel (DYNAMICS)  min= -1.03584619482037E-04
DEBUG_STATS_RL:                Wvel (DYNAMICS)  max=  1.51260116821022E-04
DEBUG_STATS_RL:                Wvel (DYNAMICS) mean=  4.13279379255398E-08
DEBUG_STATS_RL:                Wvel (DYNAMICS) S.D.=  1.14656175137308E-05
DEBUG_STATS_RL:               Theta (DYNAMICS)  min= -1.98052916939334E+00
DEBUG_STATS_RL:               Theta (DYNAMICS)  max=  3.03983652559083E+01
DEBUG_STATS_RL:               Theta (DYNAMICS) mean=  3.22845991430722E+00
DEBUG_STATS_RL:               Theta (DYNAMICS) S.D.=  5.87282065918006E+00
DEBUG_STATS_RL:                Salt (DYNAMICS)  min=  9.99999999999997E-03
DEBUG_STATS_RL:                Salt (DYNAMICS)  max=  3.74718726641086E+01
DEBUG_STATS_RL:                Salt (DYNAMICS) mean=  1.88549359591649E+01
DEBUG_STATS_RL:                Salt (DYNAMICS) S.D.=  1.73004538250276E+01
DEBUG_STATS_RL:                  Gu (DYNAMICS)  min= -1.35625207332609E-01
DEBUG_STATS_RL:                  Gu (DYNAMICS)  max=  1.87355480850044E-01
DEBUG_STATS_RL:                  Gu (DYNAMICS) mean=  4.63121568276552E-03
DEBUG_STATS_RL:                  Gu (DYNAMICS) S.D.=  2.32423565115060E-02
DEBUG_STATS_RL:                  Gv (DYNAMICS)  min= -9.98765240076917E-02
DEBUG_STATS_RL:                  Gv (DYNAMICS)  max=  1.40527048621730E-01
DEBUG_STATS_RL:                  Gv (DYNAMICS) mean=  3.93276088989315E-03
DEBUG_STATS_RL:                  Gv (DYNAMICS) S.D.=  1.59252851179875E-02
DEBUG_STATS_RL:               GuNm1 (DYNAMICS)  min= -9.51777967956486E-06
DEBUG_STATS_RL:               GuNm1 (DYNAMICS)  max=  9.01009202396019E-06
DEBUG_STATS_RL:               GuNm1 (DYNAMICS) mean= -1.78134797644582E-09
DEBUG_STATS_RL:               GuNm1 (DYNAMICS) S.D.=  1.18341336345954E-06
DEBUG_STATS_RL:               GvNm1 (DYNAMICS)  min= -9.41179096413413E-06
DEBUG_STATS_RL:               GvNm1 (DYNAMICS)  max=  1.63908880920779E-05
DEBUG_STATS_RL:               GvNm1 (DYNAMICS) mean=  7.44856260158008E-07
DEBUG_STATS_RL:               GvNm1 (DYNAMICS) S.D.=  2.61229515419089E-06
DEBUG_STATS_RL:               GtNm1 (DYNAMICS)  min= -5.76231049806356E-06
DEBUG_STATS_RL:               GtNm1 (DYNAMICS)  max=  3.04329585618712E-06
DEBUG_STATS_RL:               GtNm1 (DYNAMICS) mean=  4.16356209215047E-09
DEBUG_STATS_RL:               GtNm1 (DYNAMICS) S.D.=  1.89101712268010E-07
DEBUG_STATS_RL:               GsNm1 (DYNAMICS)  min= -5.65765714438118E-07
DEBUG_STATS_RL:               GsNm1 (DYNAMICS)  max=  3.71245263895844E-07
DEBUG_STATS_RL:               GsNm1 (DYNAMICS) mean= -7.68983234010690E-11
DEBUG_STATS_RL:               GsNm1 (DYNAMICS) S.D.=  1.87188296357001E-08
DEBUG_STATS_RL:    cg2d_b (SOLVE_FOR_PRESSURE)  min= -2.03811240678215E+04
DEBUG_STATS_RL:    cg2d_b (SOLVE_FOR_PRESSURE)  max=  2.44490229605008E+04
DEBUG_STATS_RL:    cg2d_b (SOLVE_FOR_PRESSURE) mean=  3.75921750733630E+00
DEBUG_STATS_RL:    cg2d_b (SOLVE_FOR_PRESSURE) S.D.=  3.74859955775569E+03
 cg2d: Sum(rhs),rhsMax =   3.55948315134953E-01  1.60587728848839E+00
(PID.TID 0000.0001)  cg2d: iter=     1 ; resid.=  1.17809946768073E-01
(PID.TID 0000.0001)  cg2d: iter=     2 ; resid.=  1.01922664705674E-01
(PID.TID 0000.0001)  cg2d: iter=     3 ; resid.=  1.01553099169765E-01
(PID.TID 0000.0001)  cg2d: iter=     4 ; resid.=  8.39753755228268E-02
(PID.TID 0000.0001)  cg2d: iter=     5 ; resid.=  8.47687876672236E-02
(PID.TID 0000.0001)  cg2d: iter=     6 ; resid.=  7.84904751349230E-02
(PID.TID 0000.0001)  cg2d: iter=     7 ; resid.=  6.35762242659952E-02
(PID.TID 0000.0001)  cg2d: iter=     8 ; resid.=  4.70144715732400E-02
(PID.TID 0000.0001)  cg2d: iter=     9 ; resid.=  3.44969012782048E-02
(PID.TID 0000.0001)  cg2d: iter=    10 ; resid.=  2.79659488105257E-02
(PID.TID 0000.0001)  cg2d: iter=    11 ; resid.=  2.50744377213917E-02
(PID.TID 0000.0001)  cg2d: iter=    12 ; resid.=  2.21285185742373E-02
(PID.TID 0000.0001)  cg2d: iter=    13 ; resid.=  1.90561989911478E-02
(PID.TID 0000.0001)  cg2d: iter=    14 ; resid.=  1.63794741113031E-02
(PID.TID 0000.0001)  cg2d: iter=    15 ; resid.=  1.21315616472806E-02
(PID.TID 0000.0001)  cg2d: iter=    16 ; resid.=  9.87956135889806E-03
(PID.TID 0000.0001)  cg2d: iter=    17 ; resid.=  8.80257000689979E-03
(PID.TID 0000.0001)  cg2d: iter=    18 ; resid.=  7.65473580001507E-03
(PID.TID 0000.0001)  cg2d: iter=    19 ; resid.=  6.45029970448274E-03
(PID.TID 0000.0001)  cg2d: iter=    20 ; resid.=  5.06629659766299E-03
(PID.TID 0000.0001)  cg2d: iter=    21 ; resid.=  4.07515209254439E-03
(PID.TID 0000.0001)  cg2d: iter=    22 ; resid.=  3.61158935538417E-03
(PID.TID 0000.0001)  cg2d: iter=    23 ; resid.=  2.95885897030898E-03
(PID.TID 0000.0001)  cg2d: iter=    24 ; resid.=  2.53639258770425E-03
(PID.TID 0000.0001)  cg2d: iter=    25 ; resid.=  2.28222839335830E-03
(PID.TID 0000.0001)  cg2d: iter=    26 ; resid.=  1.75626471376303E-03
(PID.TID 0000.0001)  cg2d: iter=    27 ; resid.=  1.49743363661860E-03
(PID.TID 0000.0001)  cg2d: iter=    28 ; resid.=  1.18928489281503E-03
(PID.TID 0000.0001)  cg2d: iter=    29 ; resid.=  8.67293096214472E-04
(PID.TID 0000.0001)  cg2d: iter=    30 ; resid.=  7.09847434614949E-04
(PID.TID 0000.0001)  cg2d: iter=    31 ; resid.=  6.22674946599906E-04
(PID.TID 0000.0001)  cg2d: iter=    32 ; resid.=  4.91497984321440E-04
(PID.TID 0000.0001)  cg2d: iter=    33 ; resid.=  4.10035652783795E-04
(PID.TID 0000.0001)  cg2d: iter=    34 ; resid.=  3.50175795187942E-04
(PID.TID 0000.0001)  cg2d: iter=    35 ; resid.=  2.89984716107297E-04
(PID.TID 0000.0001)  cg2d: iter=    36 ; resid.=  2.54093138740864E-04
(PID.TID 0000.0001)  cg2d: iter=    37 ; resid.=  2.08242415431991E-04
(PID.TID 0000.0001)  cg2d: iter=    38 ; resid.=  1.85417389811503E-04
(PID.TID 0000.0001)  cg2d: iter=    39 ; resid.=  1.64220891022103E-04
(PID.TID 0000.0001)  cg2d: iter=    40 ; resid.=  1.36254652093451E-04
(PID.TID 0000.0001)  cg2d: iter=    41 ; resid.=  1.17837669852559E-04
(PID.TID 0000.0001)  cg2d: iter=    42 ; resid.=  1.04449049792299E-04
(PID.TID 0000.0001)  cg2d: iter=    43 ; resid.=  8.57187047702517E-05
(PID.TID 0000.0001)  cg2d: iter=    44 ; resid.=  7.29106321091305E-05
(PID.TID 0000.0001)  cg2d: iter=    45 ; resid.=  5.97450087989504E-05
(PID.TID 0000.0001)  cg2d: iter=    46 ; resid.=  4.66526303415148E-05
(PID.TID 0000.0001)  cg2d: iter=    47 ; resid.=  3.98142733613147E-05
(PID.TID 0000.0001)  cg2d: iter=    48 ; resid.=  3.02670440951622E-05
(PID.TID 0000.0001)  cg2d: iter=    49 ; resid.=  2.43050717428077E-05
(PID.TID 0000.0001)  cg2d: iter=    50 ; resid.=  2.16717672778877E-05
(PID.TID 0000.0001)  cg2d: iter=    51 ; resid.=  1.91808238692217E-05
(PID.TID 0000.0001)  cg2d: iter=    52 ; resid.=  1.86648860035659E-05
(PID.TID 0000.0001)  cg2d: iter=    53 ; resid.=  1.54799194370986E-05
(PID.TID 0000.0001)  cg2d: iter=    54 ; resid.=  1.16799725167414E-05
(PID.TID 0000.0001)  cg2d: iter=    55 ; resid.=  9.62328485686354E-06
(PID.TID 0000.0001)  cg2d: iter=    56 ; resid.=  7.91013448885802E-06
(PID.TID 0000.0001)  cg2d: iter=    57 ; resid.=  6.13635861645430E-06
(PID.TID 0000.0001)  cg2d: iter=    58 ; resid.=  5.19818818681708E-06
(PID.TID 0000.0001)  cg2d: iter=    59 ; resid.=  4.29046420899937E-06
(PID.TID 0000.0001)  cg2d: iter=    60 ; resid.=  3.22461015719556E-06
(PID.TID 0000.0001)  cg2d: iter=    61 ; resid.=  2.64817894029638E-06
(PID.TID 0000.0001)  cg2d: iter=    62 ; resid.=  2.25931789631674E-06
(PID.TID 0000.0001)  cg2d: iter=    63 ; resid.=  1.89121907410203E-06
(PID.TID 0000.0001)  cg2d: iter=    64 ; resid.=  1.65723301696904E-06
(PID.TID 0000.0001)  cg2d: iter=    65 ; resid.=  1.28875250562695E-06
(PID.TID 0000.0001)  cg2d: iter=    66 ; resid.=  1.09203794148087E-06
(PID.TID 0000.0001)  cg2d: iter=    67 ; resid.=  9.46108498845375E-07
(PID.TID 0000.0001)  cg2d: iter=    68 ; resid.=  7.62084276442311E-07
(PID.TID 0000.0001)  cg2d: iter=    69 ; resid.=  6.16342430733760E-07
(PID.TID 0000.0001)  cg2d: iter=    70 ; resid.=  5.35034632771779E-07
(PID.TID 0000.0001)  cg2d: iter=    71 ; resid.=  4.47372931146150E-07
(PID.TID 0000.0001)  cg2d: iter=    72 ; resid.=  3.64198713795642E-07
(PID.TID 0000.0001)  cg2d: iter=    73 ; resid.=  3.13882231129183E-07
(PID.TID 0000.0001)  cg2d: iter=    74 ; resid.=  2.65301774435440E-07
(PID.TID 0000.0001)  cg2d: iter=    75 ; resid.=  2.14727467482362E-07
(PID.TID 0000.0001)  cg2d: iter=    76 ; resid.=  1.74364862246787E-07
(PID.TID 0000.0001)  cg2d: iter=    77 ; resid.=  1.56425703417896E-07
(PID.TID 0000.0001)  cg2d: iter=    78 ; resid.=  1.23447236409493E-07
(PID.TID 0000.0001)  cg2d: iter=    79 ; resid.=  9.27457643225775E-08
(PID.TID 0000.0001)  cg2d: iter=    80 ; resid.=  7.14844039919081E-08
(PID.TID 0000.0001)  cg2d: iter=    81 ; resid.=  5.56254481038793E-08
(PID.TID 0000.0001)  cg2d: iter=    82 ; resid.=  4.33816989516482E-08
(PID.TID 0000.0001)  cg2d: iter=    83 ; resid.=  3.34686585010170E-08
(PID.TID 0000.0001)  cg2d: iter=    84 ; resid.=  2.34724765439108E-08
(PID.TID 0000.0001)  cg2d: iter=    85 ; resid.=  1.79612360787057E-08
(PID.TID 0000.0001)  cg2d: iter=    86 ; resid.=  1.40621153676299E-08
(PID.TID 0000.0001)  cg2d: iter=    87 ; resid.=  1.08633036054644E-08
(PID.TID 0000.0001)  cg2d: iter=    88 ; resid.=  8.55162670218669E-09
(PID.TID 0000.0001)  cg2d: iter=    89 ; resid.=  7.43887117692852E-09
(PID.TID 0000.0001)  cg2d: iter=    90 ; resid.=  5.57657502578049E-09
(PID.TID 0000.0001)  cg2d: iter=    91 ; resid.=  4.33425093599174E-09
(PID.TID 0000.0001)  cg2d: iter=    92 ; resid.=  3.30126738903499E-09
(PID.TID 0000.0001)  cg2d: iter=    93 ; resid.=  2.46545557305555E-09
(PID.TID 0000.0001)  cg2d: iter=    94 ; resid.=  1.97369736549607E-09
(PID.TID 0000.0001)  cg2d: iter=    95 ; resid.=  1.50183668055395E-09
(PID.TID 0000.0001)  cg2d: iter=    96 ; resid.=  1.00637114076451E-09
(PID.TID 0000.0001)  cg2d: iter=    97 ; resid.=  7.17899416665197E-10
(PID.TID 0000.0001)  cg2d: iter=    98 ; resid.=  5.51529731363204E-10
(PID.TID 0000.0001)  cg2d: iter=    99 ; resid.=  4.34047535544417E-10
(PID.TID 0000.0001)  cg2d: iter=   100 ; resid.=  4.08836316515691E-10
(PID.TID 0000.0001)  cg2d: iter=   101 ; resid.=  3.38043559049280E-10
(PID.TID 0000.0001)  cg2d: iter=   102 ; resid.=  2.83866589297910E-10
(PID.TID 0000.0001)  cg2d: iter=   103 ; resid.=  2.37349480687450E-10
(PID.TID 0000.0001)  cg2d: iter=   104 ; resid.=  1.95029559503259E-10
(PID.TID 0000.0001)  cg2d: iter=   105 ; resid.=  1.63912266615149E-10
(PID.TID 0000.0001)  cg2d: iter=   106 ; resid.=  1.49384438666103E-10
(PID.TID 0000.0001)  cg2d: iter=   107 ; resid.=  1.12978748342833E-10
(PID.TID 0000.0001)  cg2d: iter=   108 ; resid.=  8.32397236978271E-11
(PID.TID 0000.0001)  cg2d: iter=   109 ; resid.=  6.14264550022033E-11
(PID.TID 0000.0001)  cg2d: iter=   110 ; resid.=  4.79269240497644E-11
(PID.TID 0000.0001)  cg2d: iter=   111 ; resid.=  3.89905313890231E-11
(PID.TID 0000.0001)  cg2d: iter=   112 ; resid.=  3.29770295537064E-11
(PID.TID 0000.0001)  cg2d: iter=   113 ; resid.=  2.51912646037693E-11
(PID.TID 0000.0001)  cg2d: iter=   114 ; resid.=  2.11404311741335E-11
(PID.TID 0000.0001)  cg2d: iter=   115 ; resid.=  1.65316402497102E-11
(PID.TID 0000.0001)  cg2d: iter=   116 ; resid.=  1.17309523090009E-11
(PID.TID 0000.0001)  cg2d: iter=   117 ; resid.=  9.22097403928369E-12
(PID.TID 0000.0001)  cg2d: iter=   118 ; resid.=  7.31766140703040E-12
(PID.TID 0000.0001)  cg2d: iter=   119 ; resid.=  5.65242003691222E-12
(PID.TID 0000.0001)  cg2d: iter=   120 ; resid.=  3.91776296285090E-12
(PID.TID 0000.0001)  cg2d: iter=   121 ; resid.=  2.70190363957342E-12
(PID.TID 0000.0001)  cg2d: iter=   122 ; resid.=  2.13902819028431E-12
(PID.TID 0000.0001)  cg2d: iter=   123 ; resid.=  1.77417940959067E-12
(PID.TID 0000.0001)  cg2d: iter=   124 ; resid.=  1.28747313947025E-12
(PID.TID 0000.0001)  cg2d: iter=   125 ; resid.=  9.34956496340538E-13
(PID.TID 0000.0001)  cg2d: iter=   126 ; resid.=  6.71956768527643E-13
(PID.TID 0000.0001)  cg2d: iter=   127 ; resid.=  4.63811588786103E-13
(PID.TID 0000.0001)  cg2d: iter=   128 ; resid.=  3.42731673114621E-13
(PID.TID 0000.0001)  cg2d: iter=   129 ; resid.=  2.63265477881990E-13
(PID.TID 0000.0001)  cg2d: iter=   130 ; resid.=  2.04882618581453E-13
(PID.TID 0000.0001)  cg2d: iter=   131 ; resid.=  1.61507846074381E-13
(PID.TID 0000.0001)  cg2d: iter=   132 ; resid.=  1.15759563575468E-13
(PID.TID 0000.0001)  cg2d: iter=   133 ; resid.=  9.35524411612500E-14
DEBUG_STATS_RL:    cg2d_x (SOLVE_FOR_PRESSURE)  min= -1.72246546886394E+01
DEBUG_STATS_RL:    cg2d_x (SOLVE_FOR_PRESSURE)  max=  8.12880932318135E+00
DEBUG_STATS_RL:    cg2d_x (SOLVE_FOR_PRESSURE) mean= -1.77059044758330E+00
DEBUG_STATS_RL:    cg2d_x (SOLVE_FOR_PRESSURE) S.D.=  6.72843460022500E+00
(PID.TID 0000.0001)      cg2d_init_res =   3.12641600438509E-01
(PID.TID 0000.0001)      cg2d_iters(min,last) =      -1     133
(PID.TID 0000.0001)      cg2d_last_res =   9.35524411612500E-14
(PID.TID 0000.0001) // =======================================================
(PID.TID 0000.0001) // Begin MONITOR dynamic field statistics
(PID.TID 0000.0001) // =======================================================
(PID.TID 0000.0001) %MON time_tsnumber                =                    52
(PID.TID 0000.0001) %MON time_secondsf                =   4.4928000000000E+06
(PID.TID 0000.0001) %MON dynstat_eta_max              =   8.2862480358620E-01
(PID.TID 0000.0001) %MON dynstat_eta_min              =  -1.7558261660184E+00
(PID.TID 0000.0001) %MON dynstat_eta_mean             =  -3.9222773413233E-03
(PID.TID 0000.0001) %MON dynstat_eta_sd               =   5.9273369993957E-01
(PID.TID 0000.0001) %MON dynstat_eta_del2             =   2.2970477968710E-03
(PID.TID 0000.0001) %MON dynstat_uvel_max             =   1.8194922604573E-01
(PID.TID 0000.0001) %MON dynstat_uvel_min             =  -1.3647674795568E-01
(PID.TID 0000.0001) %MON dynstat_uvel_mean            =   1.4249907937411E-03
(PID.TID 0000.0001) %MON dynstat_uvel_sd              =   1.4617559869517E-02
(PID.TID 0000.0001) %MON dynstat_uvel_del2            =   8.9125763290005E-05
(PID.TID 0000.0001) %MON dynstat_vvel_max             =   1.3920904612405E-01
(PID.TID 0000.0001) %MON dynstat_vvel_min             =  -9.9033288764925E-02
(PID.TID 0000.0001) %MON dynstat_vvel_mean            =   3.3874887659106E-05
(PID.TID 0000.0001) %MON dynstat_vvel_sd              =   8.8829990199846E-03
(PID.TID 0000.0001) %MON dynstat_vvel_del2            =   7.5810170298664E-05
(PID.TID 0000.0001) %MON dynstat_wvel_max             =   1.5634013393804E-04
(PID.TID 0000.0001) %MON dynstat_wvel_min             =  -9.8315214440997E-05
(PID.TID 0000.0001) %MON dynstat_wvel_mean            =   2.5551732091967E-23
(PID.TID 0000.0001) %MON dynstat_wvel_sd              =   1.2730996769457E-05
(PID.TID 0000.0001) %MON dynstat_wvel_del2            =   1.3052397881845E-07
(PID.TID 0000.0001) %MON dynstat_theta_max            =   3.0398365255908E+01
(PID.TID 0000.0001) %MON dynstat_theta_min            =  -1.9805291693933E+00
(PID.TID 0000.0001) %MON dynstat_theta_mean           =   3.6327364344944E+00
(PID.TID 0000.0001) %MON dynstat_theta_sd             =   4.4218864272446E+00
(PID.TID 0000.0001) %MON dynstat_theta_del2           =   4.8026843908470E-03
(PID.TID 0000.0001) %MON dynstat_salt_max             =   3.7471872664109E+01
(PID.TID 0000.0001) %MON dynstat_salt_min             =   2.9860675610615E+01
(PID.TID 0000.0001) %MON dynstat_salt_mean            =   3.4727988157642E+01
(PID.TID 0000.0001) %MON dynstat_salt_sd              =   2.9639717273616E-01
(PID.TID 0000.0001) %MON dynstat_salt_del2            =   9.8704145416131E-04
(PID.TID 0000.0001) %MON dynstat_sst_max              =   3.0398365255908E+01
(PID.TID 0000.0001) %MON dynstat_sst_min              =  -1.9805291693933E+00
(PID.TID 0000.0001) %MON dynstat_sst_mean             =   1.8952608464733E+01
(PID.TID 0000.0001) %MON dynstat_sst_sd               =   9.0285870884898E+00
(PID.TID 0000.0001) %MON dynstat_sst_del2             =   2.7481142033254E-02
(PID.TID 0000.0001) %MON dynstat_sss_max              =   3.7448986379399E+01
(PID.TID 0000.0001) %MON dynstat_sss_min              =   2.9860675610615E+01
(PID.TID 0000.0001) %MON dynstat_sss_mean             =   3.4853185862538E+01
(PID.TID 0000.0001) %MON dynstat_sss_sd               =   9.7836391951458E-01
(PID.TID 0000.0001) %MON dynstat_sss_del2             =   7.9122361005238E-03
(PID.TID 0000.0001) %MON forcing_qnet_max             =   3.4166333007812E+02
(PID.TID 0000.0001) %MON forcing_qnet_min             =  -1.7103829345703E+02
(PID.TID 0000.0001) %MON forcing_qnet_mean            =  -1.2625213981184E+01
(PID.TID 0000.0001) %MON forcing_qnet_sd              =   7.1234414492605E+01
(PID.TID 0000.0001) %MON forcing_qnet_del2            =   9.1767530219150E-01
(PID.TID 0000.0001) %MON forcing_qsw_max              =   0.0000000000000E+00
(PID.TID 0000.0001) %MON forcing_qsw_min              =   0.0000000000000E+00
(PID.TID 0000.0001) %MON forcing_qsw_mean             =   0.0000000000000E+00
(PID.TID 0000.0001) %MON forcing_qsw_sd               =   0.0000000000000E+00
(PID.TID 0000.0001) %MON forcing_qsw_del2             =   0.0000000000000E+00
(PID.TID 0000.0001) %MON forcing_empmr_max            =   6.9246974021553E-05
(PID.TID 0000.0001) %MON forcing_empmr_min            =  -7.4091350654726E-05
(PID.TID 0000.0001) %MON forcing_empmr_mean           =   8.6486939466325E-07
(PID.TID 0000.0001) %MON forcing_empmr_sd             =   2.7477668813451E-05
(PID.TID 0000.0001) %MON forcing_empmr_del2           =   3.5358321320213E-07
(PID.TID 0000.0001) %MON forcing_fu_max               =   3.1258164048195E-01
(PID.TID 0000.0001) %MON forcing_fu_min               =  -2.4804012775421E-01
(PID.TID 0000.0001) %MON forcing_fu_mean              =   1.8195939153386E-02
(PID.TID 0000.0001) %MON forcing_fu_sd                =   9.3365690565339E-02
(PID.TID 0000.0001) %MON forcing_fu_del2              =   7.1304989393077E-04
(PID.TID 0000.0001) %MON forcing_fv_max               =   1.6746481135488E-01
(PID.TID 0000.0001) %MON forcing_fv_min               =  -1.9076303839684E-01
(PID.TID 0000.0001) %MON forcing_fv_mean              =  -7.2792950407772E-03
(PID.TID 0000.0001) %MON forcing_fv_sd                =   4.3351289204055E-02
(PID.TID 0000.0001) %MON forcing_fv_del2              =   5.0024732875636E-04
(PID.TID 0000.0001) %MON trAdv_CFL_u_max              =   4.8205505597134E-02
(PID.TID 0000.0001) %MON trAdv_CFL_v_max              =   2.8787696888478E-02
(PID.TID 0000.0001) %MON trAdv_CFL_w_max              =   3.3509933572657E-02
(PID.TID 0000.0001) %MON advcfl_uvel_max              =   4.7567870075962E-02
(PID.TID 0000.0001) %MON advcfl_vvel_max              =   2.7046085017224E-02
(PID.TID 0000.0001) %MON advcfl_wvel_max              =   3.7173555004538E-02
(PID.TID 0000.0001) %MON advcfl_W_hf_max              =   4.5139316791225E-02
(PID.TID 0000.0001) %MON pe_b_mean                    =   4.4959291256110E-04
(PID.TID 0000.0001) %MON ke_max                       =   1.6326221758527E-02
(PID.TID 0000.0001) %MON ke_mean                      =   1.3342306288118E-04
(PID.TID 0000.0001) %MON ke_vol                       =   1.3226782436723E+18
(PID.TID 0000.0001) %MON vort_r_min                   =  -4.8318620306100E-07
(PID.TID 0000.0001) %MON vort_r_max                   =   4.4755481454562E-07
(PID.TID 0000.0001) %MON vort_a_mean                  =  -2.5274807065806E-05
(PID.TID 0000.0001) %MON vort_a_sd                    =   7.3604493502438E-05
(PID.TID 0000.0001) %MON vort_p_mean                  =  -3.1845655381608E-05
(PID.TID 0000.0001) %MON vort_p_sd                    =   1.3162428205933E-04
(PID.TID 0000.0001) %MON surfExpan_theta_mean         =   3.7470872642409E-08
(PID.TID 0000.0001) %MON surfExpan_salt_mean          =   1.2031474170714E-07
(PID.TID 0000.0001) // =======================================================
(PID.TID 0000.0001) // End MONITOR dynamic field statistics
(PID.TID 0000.0001) // =======================================================
 EXTERNAL_FIELDS_LOAD,        52 : iP,iLd,i0,i1=    2    3    2    3 ; Wght=  0.7666666667  0.2333333333
 EXTERNAL_FIELDS_LOAD: (fu0,1),fu,fv= -1.4435E-02 -2.7199E-02 -1.7413E-02 -1.3655E-02
 EXTERNAL_FIELDS_LOAD: SST,SSS,Q,E-P= -4.5067E-01  3.4458E+01  2.3463E+02  8.5414E-06
DEBUG_STATS_RL:          Uvel (THERMODYNAMICS)  min= -1.36476747955676E-01
DEBUG_STATS_RL:          Uvel (THERMODYNAMICS)  max=  1.81949226045730E-01
DEBUG_STATS_RL:          Uvel (THERMODYNAMICS) mean=  4.73747954586141E-03
DEBUG_STATS_RL:          Uvel (THERMODYNAMICS) S.D.=  2.29071608218159E-02
DEBUG_STATS_RL:          Vvel (THERMODYNAMICS)  min= -9.90332887649247E-02
DEBUG_STATS_RL:          Vvel (THERMODYNAMICS)  max=  1.39209046124048E-01
DEBUG_STATS_RL:          Vvel (THERMODYNAMICS) mean=  1.59903371295865E-03
DEBUG_STATS_RL:          Vvel (THERMODYNAMICS) S.D.=  1.43515119259106E-02
DEBUG_STATS_RL:          Wvel (THERMODYNAMICS)  min= -9.83152144409972E-05
DEBUG_STATS_RL:          Wvel (THERMODYNAMICS)  max=  1.56340133938035E-04
DEBUG_STATS_RL:          Wvel (THERMODYNAMICS) mean=  4.62096809614026E-08
DEBUG_STATS_RL:          Wvel (THERMODYNAMICS) S.D.=  1.12739637202044E-05
DEBUG_STATS_RL:         Theta (THERMODYNAMICS)  min= -1.97879946809068E+00
DEBUG_STATS_RL:         Theta (THERMODYNAMICS)  max=  3.04054355081028E+01
DEBUG_STATS_RL:         Theta (THERMODYNAMICS) mean=  3.22860653652851E+00
DEBUG_STATS_RL:         Theta (THERMODYNAMICS) S.D.=  5.87344665671736E+00
DEBUG_STATS_RL:          Salt (THERMODYNAMICS)  min=  9.99999999999997E-03
DEBUG_STATS_RL:          Salt (THERMODYNAMICS)  max=  3.74726157862512E+01
DEBUG_STATS_RL:          Salt (THERMODYNAMICS) mean=  1.88549313571319E+01
DEBUG_STATS_RL:          Salt (THERMODYNAMICS) S.D.=  1.73004499158933E+01
DEBUG_STATS_RL:         GtNm1 (THERMODYNAMICS)  min= -5.37988691306641E-06
DEBUG_STATS_RL:         GtNm1 (THERMODYNAMICS)  max=  2.76414227778887E-06
DEBUG_STATS_RL:         GtNm1 (THERMODYNAMICS) mean=  3.58658699876462E-09
DEBUG_STATS_RL:         GtNm1 (THERMODYNAMICS) S.D.=  1.86540993804636E-07
DEBUG_STATS_RL:         GsNm1 (THERMODYNAMICS)  min= -5.17813203916729E-07
DEBUG_STATS_RL:         GsNm1 (THERMODYNAMICS)  max=  3.36019561898925E-07
DEBUG_STATS_RL:         GsNm1 (THERMODYNAMICS) mean= -1.42100968141261E-10
DEBUG_STATS_RL:         GsNm1 (THERMODYNAMICS) S.D.=  1.85351115369151E-08
DEBUG_STATS_RL:                EtaN (DYNAMICS)  min= -1.75582616601840E+00
DEBUG_STATS_RL:                EtaN (DYNAMICS)  max=  8.28624803586202E-01
DEBUG_STATS_RL:                EtaN (DYNAMICS) mean= -1.80488322893302E-01
DEBUG_STATS_RL:                EtaN (DYNAMICS) S.D.=  6.85875086669218E-01
DEBUG_STATS_RL:                Uvel (DYNAMICS)  min= -1.36476747955676E-01
DEBUG_STATS_RL:                Uvel (DYNAMICS)  max=  1.81949226045730E-01
DEBUG_STATS_RL:                Uvel (DYNAMICS) mean=  4.73747954586141E-03
DEBUG_STATS_RL:                Uvel (DYNAMICS) S.D.=  2.29071608218159E-02
DEBUG_STATS_RL:                Vvel (DYNAMICS)  min= -9.90332887649247E-02
DEBUG_STATS_RL:                Vvel (DYNAMICS)  max=  1.39209046124048E-01
DEBUG_STATS_RL:                Vvel (DYNAMICS) mean=  1.59903371295865E-03
DEBUG_STATS_RL:                Vvel (DYNAMICS) S.D.=  1.43515119259106E-02
DEBUG_STATS_RL:                Wvel (DYNAMICS)  min= -9.83152144409972E-05
DEBUG_STATS_RL:                Wvel (DYNAMICS)  max=  1.56340133938035E-04
DEBUG_STATS_RL:                Wvel (DYNAMICS) mean=  4.62096809614026E-08
DEBUG_STATS_RL:                Wvel (DYNAMICS) S.D.=  1.12739637202044E-05
DEBUG_STATS_RL:               Theta (DYNAMICS)  min= -1.97879946809068E+00
DEBUG_STATS_RL:               Theta (DYNAMICS)  max=  3.04054355081028E+01
DEBUG_STATS_RL:               Theta (DYNAMICS) mean=  3.22860653652851E+00
DEBUG_STATS_RL:               Theta (DYNAMICS) S.D.=  5.87344665671736E+00
DEBUG_STATS_RL:                Salt (DYNAMICS)  min=  9.99999999999997E-03
DEBUG_STATS_RL:                Salt (DYNAMICS)  max=  3.74726157862512E+01
DEBUG_STATS_RL:                Salt (DYNAMICS) mean=  1.88549313571319E+01
DEBUG_STATS_RL:                Salt (DYNAMICS) S.D.=  1.73004499158933E+01
DEBUG_STATS_RL:                  Gu (DYNAMICS)  min= -1.33713468048676E-01
DEBUG_STATS_RL:                  Gu (DYNAMICS)  max=  1.83129914520238E-01
DEBUG_STATS_RL:                  Gu (DYNAMICS) mean=  4.75212571401127E-03
DEBUG_STATS_RL:                  Gu (DYNAMICS) S.D.=  2.28802256317031E-02
DEBUG_STATS_RL:                  Gv (DYNAMICS)  min= -9.70931805108483E-02
DEBUG_STATS_RL:                  Gv (DYNAMICS)  max=  1.42232687029108E-01
DEBUG_STATS_RL:                  Gv (DYNAMICS) mean=  3.92564859994393E-03
DEBUG_STATS_RL:                  Gv (DYNAMICS) S.D.=  1.59266829623955E-02
DEBUG_STATS_RL:               GuNm1 (DYNAMICS)  min= -9.55874449478612E-06
DEBUG_STATS_RL:               GuNm1 (DYNAMICS)  max=  9.06930994005144E-06
DEBUG_STATS_RL:               GuNm1 (DYNAMICS) mean= -6.00591030934657E-10
DEBUG_STATS_RL:               GuNm1 (DYNAMICS) S.D.=  1.18544252979880E-06
DEBUG_STATS_RL:               GvNm1 (DYNAMICS)  min= -9.43377122050179E-06
DEBUG_STATS_RL:               GvNm1 (DYNAMICS)  max=  1.63525008946140E-05
DEBUG_STATS_RL:               GvNm1 (DYNAMICS) mean=  7.44645115737204E-07
DEBUG_STATS_RL:               GvNm1 (DYNAMICS) S.D.=  2.61729148234881E-06
DEBUG_STATS_RL:               GtNm1 (DYNAMICS)  min= -5.37988691306641E-06
DEBUG_STATS_RL:               GtNm1 (DYNAMICS)  max=  2.76414227778887E-06
DEBUG_STATS_RL:               GtNm1 (DYNAMICS) mean=  3.58658699876462E-09
DEBUG_STATS_RL:               GtNm1 (DYNAMICS) S.D.=  1.86540993804636E-07
DEBUG_STATS_RL:               GsNm1 (DYNAMICS)  min= -5.17813203916729E-07
DEBUG_STATS_RL:               GsNm1 (DYNAMICS)  max=  3.36019561898925E-07
DEBUG_STATS_RL:               GsNm1 (DYNAMICS) mean= -1.42100968141261E-10
DEBUG_STATS_RL:               GsNm1 (DYNAMICS) S.D.=  1.85351115369151E-08
DEBUG_STATS_RL:    cg2d_b (SOLVE_FOR_PRESSURE)  min= -2.03859128835095E+04
DEBUG_STATS_RL:    cg2d_b (SOLVE_FOR_PRESSURE)  max=  2.48204380312893E+04
DEBUG_STATS_RL:    cg2d_b (SOLVE_FOR_PRESSURE) mean=  3.82736654277859E+00
DEBUG_STATS_RL:    cg2d_b (SOLVE_FOR_PRESSURE) S.D.=  3.76836738098353E+03
 cg2d: Sum(rhs),rhsMax =   3.56978129691368E-01  1.63027282477404E+00
(PID.TID 0000.0001)  cg2d: iter=     1 ; resid.=  1.13567504814852E-01
(PID.TID 0000.0001)  cg2d: iter=     2 ; resid.=  9.76613408979430E-02
(PID.TID 0000.0001)  cg2d: iter=     3 ; resid.=  9.59773986223316E-02
(PID.TID 0000.0001)  cg2d: iter=     4 ; resid.=  7.94283192626321E-02
(PID.TID 0000.0001)  cg2d: iter=     5 ; resid.=  8.05315407198317E-02
(PID.TID 0000.0001)  cg2d: iter=     6 ; resid.=  7.35921466644389E-02
(PID.TID 0000.0001)  cg2d: iter=     7 ; resid.=  6.00898211448796E-02
(PID.TID 0000.0001)  cg2d: iter=     8 ; resid.=  4.47814941520109E-02
(PID.TID 0000.0001)  cg2d: iter=     9 ; resid.=  3.29288761656009E-02
(PID.TID 0000.0001)  cg2d: iter=    10 ; resid.=  2.69719535448065E-02
(PID.TID 0000.0001)  cg2d: iter=    11 ; resid.=  2.43744060359311E-02
(PID.TID 0000.0001)  cg2d: iter=    12 ; resid.=  2.14876788753351E-02
(PID.TID 0000.0001)  cg2d: iter=    13 ; resid.=  1.83889530809888E-02
(PID.TID 0000.0001)  cg2d: iter=    14 ; resid.=  1.56745952271722E-02
(PID.TID 0000.0001)  cg2d: iter=    15 ; resid.=  1.15775836682325E-02
(PID.TID 0000.0001)  cg2d: iter=    16 ; resid.=  9.50520709241451E-03
(PID.TID 0000.0001)  cg2d: iter=    17 ; resid.=  8.39896100289022E-03
(PID.TID 0000.0001)  cg2d: iter=    18 ; resid.=  7.38384284253153E-03
(PID.TID 0000.0001)  cg2d: iter=    19 ; resid.=  6.26315877557109E-03
(PID.TID 0000.0001)  cg2d: iter=    20 ; resid.=  4.89447744462453E-03
(PID.TID 0000.0001)  cg2d: iter=    21 ; resid.=  3.87877095527171E-03
(PID.TID 0000.0001)  cg2d: iter=    22 ; resid.=  3.43567521549595E-03
(PID.TID 0000.0001)  cg2d: iter=    23 ; resid.=  2.80921151004085E-03
(PID.TID 0000.0001)  cg2d: iter=    24 ; resid.=  2.43577830858919E-03
(PID.TID 0000.0001)  cg2d: iter=    25 ; resid.=  2.22711844749057E-03
(PID.TID 0000.0001)  cg2d: iter=    26 ; resid.=  1.72077839846364E-03
(PID.TID 0000.0001)  cg2d: iter=    27 ; resid.=  1.45593380055564E-03
(PID.TID 0000.0001)  cg2d: iter=    28 ; resid.=  1.14465011446057E-03
(PID.TID 0000.0001)  cg2d: iter=    29 ; resid.=  8.32783196554568E-04
(PID.TID 0000.0001)  cg2d: iter=    30 ; resid.=  6.81142632958742E-04
(PID.TID 0000.0001)  cg2d: iter=    31 ; resid.=  5.96877725490697E-04
(PID.TID 0000.0001)  cg2d: iter=    32 ; resid.=  4.80018507247321E-04
(PID.TID 0000.0001)  cg2d: iter=    33 ; resid.=  4.04088973201020E-04
(PID.TID 0000.0001)  cg2d: iter=    34 ; resid.=  3.44584147427104E-04
(PID.TID 0000.0001)  cg2d: iter=    35 ; resid.=  2.82797139306872E-04
(PID.TID 0000.0001)  cg2d: iter=    36 ; resid.=  2.44093577486149E-04
(PID.TID 0000.0001)  cg2d: iter=    37 ; resid.=  1.99610337702754E-04
(PID.TID 0000.0001)  cg2d: iter=    38 ; resid.=  1.81301701280847E-04
(PID.TID 0000.0001)  cg2d: iter=    39 ; resid.=  1.63154542432139E-04
(PID.TID 0000.0001)  cg2d: iter=    40 ; resid.=  1.37950073891124E-04
(PID.TID 0000.0001)  cg2d: iter=    41 ; resid.=  1.20546250728057E-04
(PID.TID 0000.0001)  cg2d: iter=    42 ; resid.=  1.04952620525251E-04
(PID.TID 0000.0001)  cg2d: iter=    43 ; resid.=  8.38455473011473E-05
(PID.TID 0000.0001)  cg2d: iter=    44 ; resid.=  6.97821371218962E-05
(PID.TID 0000.0001)  cg2d: iter=    45 ; resid.=  5.60057359212919E-05
(PID.TID 0000.0001)  cg2d: iter=    46 ; resid.=  4.35770774310561E-05
(PID.TID 0000.0001)  cg2d: iter=    47 ; resid.=  3.77020680684315E-05
(PID.TID 0000.0001)  cg2d: iter=    48 ; resid.=  2.90946827645048E-05
(PID.TID 0000.0001)  cg2d: iter=    49 ; resid.=  2.36875358808260E-05
(PID.TID 0000.0001)  cg2d: iter=    50 ; resid.=  2.09370171891129E-05
(PID.TID 0000.0001)  cg2d: iter=    51 ; resid.=  1.85359917486641E-05
(PID.TID 0000.0001)  cg2d: iter=    52 ; resid.=  1.78112543217265E-05
(PID.TID 0000.0001)  cg2d: iter=    53 ; resid.=  1.45891562668094E-05
(PID.TID 0000.0001)  cg2d: iter=    54 ; resid.=  1.10085919112213E-05
(PID.TID 0000.0001)  cg2d: iter=    55 ; resid.=  9.02938803564626E-06
(PID.TID 0000.0001)  cg2d: iter=    56 ; resid.=  7.43146893950246E-06
(PID.TID 0000.0001)  cg2d: iter=    57 ; resid.=  5.89781438550571E-06
(PID.TID 0000.0001)  cg2d: iter=    58 ; resid.=  5.03552209371921E-06
(PID.TID 0000.0001)  cg2d: iter=    59 ; resid.=  4.19076770244233E-06
(PID.TID 0000.0001)  cg2d: iter=    60 ; resid.=  3.15242765832731E-06
(PID.TID 0000.0001)  cg2d: iter=    61 ; resid.=  2.50847031235959E-06
(PID.TID 0000.0001)  cg2d: iter=    62 ; resid.=  2.12239873037492E-06
(PID.TID 0000.0001)  cg2d: iter=    63 ; resid.=  1.75161307977072E-06
(PID.TID 0000.0001)  cg2d: iter=    64 ; resid.=  1.52166471856407E-06
(PID.TID 0000.0001)  cg2d: iter=    65 ; resid.=  1.21465293819396E-06
(PID.TID 0000.0001)  cg2d: iter=    66 ; resid.=  1.04442208462186E-06
(PID.TID 0000.0001)  cg2d: iter=    67 ; resid.=  9.13071162950365E-07
(PID.TID 0000.0001)  cg2d: iter=    68 ; resid.=  7.31953869034381E-07
(PID.TID 0000.0001)  cg2d: iter=    69 ; resid.=  5.92063241578367E-07
(PID.TID 0000.0001)  cg2d: iter=    70 ; resid.=  5.12720289727581E-07
(PID.TID 0000.0001)  cg2d: iter=    71 ; resid.=  4.29739669922803E-07
(PID.TID 0000.0001)  cg2d: iter=    72 ; resid.=  3.45696550221474E-07
(PID.TID 0000.0001)  cg2d: iter=    73 ; resid.=  2.96887814723919E-07
(PID.TID 0000.0001)  cg2d: iter=    74 ; resid.=  2.45783830411919E-07
(PID.TID 0000.0001)  cg2d: iter=    75 ; resid.=  1.96659748981032E-07
(PID.TID 0000.0001)  cg2d: iter=    76 ; resid.=  1.62869810911951E-07
(PID.TID 0000.0001)  cg2d: iter=    77 ; resid.=  1.46781007032864E-07
(PID.TID 0000.0001)  cg2d: iter=    78 ; resid.=  1.17670493805583E-07
(PID.TID 0000.0001)  cg2d: iter=    79 ; resid.=  8.87472365038172E-08
(PID.TID 0000.0001)  cg2d: iter=    80 ; resid.=  6.69684161472060E-08
(PID.TID 0000.0001)  cg2d: iter=    81 ; resid.=  5.19171315912697E-08
(PID.TID 0000.0001)  cg2d: iter=    82 ; resid.=  3.99125611137934E-08
(PID.TID 0000.0001)  cg2d: iter=    83 ; resid.=  2.99957573489129E-08
(PID.TID 0000.0001)  cg2d: iter=    84 ; resid.=  2.10644379843232E-08
(PID.TID 0000.0001)  cg2d: iter=    85 ; resid.=  1.59355991433745E-08
(PID.TID 0000.0001)  cg2d: iter=    86 ; resid.=  1.24311627916551E-08
(PID.TID 0000.0001)  cg2d: iter=    87 ; resid.=  9.98805551128596E-09
(PID.TID 0000.0001)  cg2d: iter=    88 ; resid.=  7.89544614179641E-09
(PID.TID 0000.0001)  cg2d: iter=    89 ; resid.=  6.78819221329751E-09
(PID.TID 0000.0001)  cg2d: iter=    90 ; resid.=  5.24585158070941E-09
(PID.TID 0000.0001)  cg2d: iter=    91 ; resid.=  3.99700757035019E-09
(PID.TID 0000.0001)  cg2d: iter=    92 ; resid.=  2.97690089365446E-09
(PID.TID 0000.0001)  cg2d: iter=    93 ; resid.=  2.23668271372562E-09
(PID.TID 0000.0001)  cg2d: iter=    94 ; resid.=  1.80300152305504E-09
(PID.TID 0000.0001)  cg2d: iter=    95 ; resid.=  1.39384465041964E-09
(PID.TID 0000.0001)  cg2d: iter=    96 ; resid.=  9.53973231205702E-10
(PID.TID 0000.0001)  cg2d: iter=    97 ; resid.=  6.79754853506943E-10
(PID.TID 0000.0001)  cg2d: iter=    98 ; resid.=  5.38030531380999E-10
(PID.TID 0000.0001)  cg2d: iter=    99 ; resid.=  4.30477092721470E-10
(PID.TID 0000.0001)  cg2d: iter=   100 ; resid.=  4.07823538164062E-10
(PID.TID 0000.0001)  cg2d: iter=   101 ; resid.=  3.40639053610587E-10
(PID.TID 0000.0001)  cg2d: iter=   102 ; resid.=  2.77195891684416E-10
(PID.TID 0000.0001)  cg2d: iter=   103 ; resid.=  2.23128438617128E-10
(PID.TID 0000.0001)  cg2d: iter=   104 ; resid.=  1.77668687483708E-10
(PID.TID 0000.0001)  cg2d: iter=   105 ; resid.=  1.48629023546322E-10
(PID.TID 0000.0001)  cg2d: iter=   106 ; resid.=  1.40095629210597E-10
(PID.TID 0000.0001)  cg2d: iter=   107 ; resid.=  1.10554473250300E-10
(PID.TID 0000.0001)  cg2d: iter=   108 ; resid.=  8.42160015827959E-11
(PID.TID 0000.0001)  cg2d: iter=   109 ; resid.=  6.28400576035800E-11
(PID.TID 0000.0001)  cg2d: iter=   110 ; resid.=  4.86736551471571E-11
(PID.TID 0000.0001)  cg2d: iter=   111 ; resid.=  3.87670338243025E-11
(PID.TID 0000.0001)  cg2d: iter=   112 ; resid.=  3.19946273311646E-11
(PID.TID 0000.0001)  cg2d: iter=   113 ; resid.=  2.42108722480588E-11
(PID.TID 0000.0001)  cg2d: iter=   114 ; resid.=  2.02662346574130E-11
(PID.TID 0000.0001)  cg2d: iter=   115 ; resid.=  1.57106410647049E-11
(PID.TID 0000.0001)  cg2d: iter=   116 ; resid.=  1.12587404906641E-11
(PID.TID 0000.0001)  cg2d: iter=   117 ; resid.=  8.96845008998515E-12
(PID.TID 0000.0001)  cg2d: iter=   118 ; resid.=  7.32466525955916E-12
(PID.TID 0000.0001)  cg2d: iter=   119 ; resid.=  5.73442075966251E-12
(PID.TID 0000.0001)  cg2d: iter=   120 ; resid.=  4.01360988916501E-12
(PID.TID 0000.0001)  cg2d: iter=   121 ; resid.=  2.84130520232967E-12
(PID.TID 0000.0001)  cg2d: iter=   122 ; resid.=  2.23943640903866E-12
(PID.TID 0000.0001)  cg2d: iter=   123 ; resid.=  1.85072059993044E-12
(PID.TID 0000.0001)  cg2d: iter=   124 ; resid.=  1.31825200776131E-12
(PID.TID 0000.0001)  cg2d: iter=   125 ; resid.=  9.21516993839833E-13
(PID.TID 0000.0001)  cg2d: iter=   126 ; resid.=  6.32866247504310E-13
(PID.TID 0000.0001)  cg2d: iter=   127 ; resid.=  4.29092303753455E-13
(PID.TID 0000.0001)  cg2d: iter=   128 ; resid.=  3.16504316599505E-13
(PID.TID 0000.0001)  cg2d: iter=   129 ; resid.=  2.43367690151292E-13
(PID.TID 0000.0001)  cg2d: iter=   130 ; resid.=  1.98553122055395E-13
(PID.TID 0000.0001)  cg2d: iter=   131 ; resid.=  1.60561661412116E-13
(PID.TID 0000.0001)  cg2d: iter=   132 ; resid.=  1.13479178339254E-13
(PID.TID 0000.0001)  cg2d: iter=   133 ; resid.=  8.83539967133563E-14
DEBUG_STATS_RL:    cg2d_x (SOLVE_FOR_PRESSURE)  min= -1.72476210618270E+01
DEBUG_STATS_RL:    cg2d_x (SOLVE_FOR_PRESSURE)  max=  7.84496705466547E+00
DEBUG_STATS_RL:    cg2d_x (SOLVE_FOR_PRESSURE) mean= -1.76484996402286E+00
DEBUG_STATS_RL:    cg2d_x (SOLVE_FOR_PRESSURE) S.D.=  6.69623659357413E+00
(PID.TID 0000.0001)      cg2d_init_res =   3.04248701652593E-01
(PID.TID 0000.0001)      cg2d_iters(min,last) =      -1     133
(PID.TID 0000.0001)      cg2d_last_res =   8.83539967133563E-14
(PID.TID 0000.0001) // =======================================================
(PID.TID 0000.0001) // Begin MONITOR dynamic field statistics
(PID.TID 0000.0001) // =======================================================
(PID.TID 0000.0001) %MON time_tsnumber                =                    53
(PID.TID 0000.0001) %MON time_secondsf                =   4.5792000000000E+06
(PID.TID 0000.0001) %MON dynstat_eta_max              =   7.9969083126045E-01
(PID.TID 0000.0001) %MON dynstat_eta_min              =  -1.7581672845899E+00
(PID.TID 0000.0001) %MON dynstat_eta_mean             =  -3.9933824096050E-03
(PID.TID 0000.0001) %MON dynstat_eta_sd               =   5.8830251898427E-01
(PID.TID 0000.0001) %MON dynstat_eta_del2             =   2.3086950613972E-03
(PID.TID 0000.0001) %MON dynstat_uvel_max             =   1.7766730825035E-01
(PID.TID 0000.0001) %MON dynstat_uvel_min             =  -1.3460294682249E-01
(PID.TID 0000.0001) %MON dynstat_uvel_mean            =   1.5236121445292E-03
(PID.TID 0000.0001) %MON dynstat_uvel_sd              =   1.4436108925058E-02
(PID.TID 0000.0001) %MON dynstat_uvel_del2            =   8.8211196040210E-05
(PID.TID 0000.0001) %MON dynstat_vvel_max             =   1.4076675530642E-01
(PID.TID 0000.0001) %MON dynstat_vvel_min             =  -9.6606473096893E-02
(PID.TID 0000.0001) %MON dynstat_vvel_mean            =   4.0529030348814E-05
(PID.TID 0000.0001) %MON dynstat_vvel_sd              =   8.8559991739382E-03
(PID.TID 0000.0001) %MON dynstat_vvel_del2            =   7.5205731260213E-05
(PID.TID 0000.0001) %MON dynstat_wvel_max             =   1.5771288589222E-04
(PID.TID 0000.0001) %MON dynstat_wvel_min             =  -9.2325881837777E-05
(PID.TID 0000.0001) %MON dynstat_wvel_mean            =   3.2193118112820E-22
(PID.TID 0000.0001) %MON dynstat_wvel_sd              =   1.2537514567924E-05
(PID.TID 0000.0001) %MON dynstat_wvel_del2            =   1.2900090260644E-07
(PID.TID 0000.0001) %MON dynstat_theta_max            =   3.0405435508103E+01
(PID.TID 0000.0001) %MON dynstat_theta_min            =  -1.9787994680907E+00
(PID.TID 0000.0001) %MON dynstat_theta_mean           =   3.6328052974174E+00
(PID.TID 0000.0001) %MON dynstat_theta_sd             =   4.4221208705081E+00
(PID.TID 0000.0001) %MON dynstat_theta_del2           =   4.8154155229963E-03
(PID.TID 0000.0001) %MON dynstat_salt_max             =   3.7472615786251E+01
(PID.TID 0000.0001) %MON dynstat_salt_min             =   2.9863142207600E+01
(PID.TID 0000.0001) %MON dynstat_salt_mean            =   3.4727986394299E+01
(PID.TID 0000.0001) %MON dynstat_salt_sd              =   2.9640019082689E-01
(PID.TID 0000.0001) %MON dynstat_salt_del2            =   9.8723792821192E-04
(PID.TID 0000.0001) %MON dynstat_sst_max              =   3.0405435508103E+01
(PID.TID 0000.0001) %MON dynstat_sst_min              =  -1.9787994680907E+00
(PID.TID 0000.0001) %MON dynstat_sst_mean             =   1.8958939821164E+01
(PID.TID 0000.0001) %MON dynstat_sst_sd               =   9.0327087017766E+00
(PID.TID 0000.0001) %MON dynstat_sst_del2             =   2.7524851227840E-02
(PID.TID 0000.0001) %MON dynstat_sss_max              =   3.7449945910011E+01
(PID.TID 0000.0001) %MON dynstat_sss_min              =   2.9863142207600E+01
(PID.TID 0000.0001) %MON dynstat_sss_mean             =   3.4852894060542E+01
(PID.TID 0000.0001) %MON dynstat_sss_sd               =   9.7859398463359E-01
(PID.TID 0000.0001) %MON dynstat_sss_del2             =   7.9176181543615E-03
(PID.TID 0000.0001) %MON forcing_qnet_max             =   3.3886517842611E+02
(PID.TID 0000.0001) %MON forcing_qnet_min             =  -1.7073901418050E+02
(PID.TID 0000.0001) %MON forcing_qnet_mean            =  -1.2401874481557E+01
(PID.TID 0000.0001) %MON forcing_qnet_sd              =   6.9891135718298E+01
(PID.TID 0000.0001) %MON forcing_qnet_del2            =   9.1294827007943E-01
(PID.TID 0000.0001) %MON forcing_qsw_max              =   0.0000000000000E+00
(PID.TID 0000.0001) %MON forcing_qsw_min              =   0.0000000000000E+00
(PID.TID 0000.0001) %MON forcing_qsw_mean             =   0.0000000000000E+00
(PID.TID 0000.0001) %MON forcing_qsw_sd               =   0.0000000000000E+00
(PID.TID 0000.0001) %MON forcing_qsw_del2             =   0.0000000000000E+00
(PID.TID 0000.0001) %MON forcing_empmr_max            =   6.9241217678003E-05
(PID.TID 0000.0001) %MON forcing_empmr_min            =  -7.4083286942065E-05
(PID.TID 0000.0001) %MON forcing_empmr_mean           =   8.5177946378889E-07
(PID.TID 0000.0001) %MON forcing_empmr_sd             =   2.7401269076073E-05
(PID.TID 0000.0001) %MON forcing_empmr_del2           =   3.5339193351951E-07
(PID.TID 0000.0001) %MON forcing_fu_max               =   3.1390599310398E-01
(PID.TID 0000.0001) %MON forcing_fu_min               =  -2.5342475722233E-01
(PID.TID 0000.0001) %MON forcing_fu_mean              =   1.8290138742845E-02
(PID.TID 0000.0001) %MON forcing_fu_sd                =   9.3499658141920E-02
(PID.TID 0000.0001) %MON forcing_fu_del2              =   7.1000949682168E-04
(PID.TID 0000.0001) %MON forcing_fv_max               =   1.6197121615211E-01
(PID.TID 0000.0001) %MON forcing_fv_min               =  -1.8927700221539E-01
(PID.TID 0000.0001) %MON forcing_fv_mean              =  -7.2897233907466E-03
(PID.TID 0000.0001) %MON forcing_fv_sd                =   4.3122711947279E-02
(PID.TID 0000.0001) %MON forcing_fv_del2              =   4.9479609729253E-04
(PID.TID 0000.0001) %MON trAdv_CFL_u_max              =   4.7577531450586E-02
(PID.TID 0000.0001) %MON trAdv_CFL_v_max              =   2.8327700447846E-02
(PID.TID 0000.0001) %MON trAdv_CFL_w_max              =   3.4635352749349E-02
(PID.TID 0000.0001) %MON advcfl_uvel_max              =   4.6448427505124E-02
(PID.TID 0000.0001) %MON advcfl_vvel_max              =   2.7348722928707E-02
(PID.TID 0000.0001) %MON advcfl_wvel_max              =   3.7332584496131E-02
(PID.TID 0000.0001) %MON advcfl_W_hf_max              =   4.4028702266434E-02
(PID.TID 0000.0001) %MON pe_b_mean                    =   4.4289688562807E-04
(PID.TID 0000.0001) %MON ke_max                       =   1.5657020912082E-02
(PID.TID 0000.0001) %MON ke_mean                      =   1.3094531044476E-04
(PID.TID 0000.0001) %MON ke_vol                       =   1.3226782436723E+18
(PID.TID 0000.0001) %MON vort_r_min                   =  -4.7595638056590E-07
(PID.TID 0000.0001) %MON vort_r_max                   =   4.5489819843662E-07
(PID.TID 0000.0001) %MON vort_a_mean                  =  -2.5274807134127E-05
(PID.TID 0000.0001) %MON vort_a_sd                    =   7.3604504898448E-05
(PID.TID 0000.0001) %MON vort_p_mean                  =  -3.1845655467691E-05
(PID.TID 0000.0001) %MON vort_p_sd                    =   1.3162433897969E-04
(PID.TID 0000.0001) %MON surfExpan_theta_mean         =   2.9797268512527E-08
(PID.TID 0000.0001) %MON surfExpan_salt_mean          =   1.1441347080822E-07
(PID.TID 0000.0001) // =======================================================
(PID.TID 0000.0001) // End MONITOR dynamic field statistics
(PID.TID 0000.0001) // =======================================================
 EXTERNAL_FIELDS_LOAD,        53 : iP,iLd,i0,i1=    2    3    2    3 ; Wght=  0.7333333333  0.2666666667
 EXTERNAL_FIELDS_LOAD: (fu0,1),fu,fv= -1.4435E-02 -2.7199E-02 -1.7838E-02 -1.3087E-02
 EXTERNAL_FIELDS_LOAD: SST,SSS,Q,E-P= -4.3907E-01  3.4463E+01  2.3379E+02  8.5648E-06
DEBUG_STATS_RL:          Uvel (THERMODYNAMICS)  min= -1.34602946822489E-01
DEBUG_STATS_RL:          Uvel (THERMODYNAMICS)  max=  1.77667308250350E-01
DEBUG_STATS_RL:          Uvel (THERMODYNAMICS) mean=  4.84722525063760E-03
DEBUG_STATS_RL:          Uvel (THERMODYNAMICS) S.D.=  2.25494894574616E-02
DEBUG_STATS_RL:          Vvel (THERMODYNAMICS)  min= -9.66064730968928E-02
DEBUG_STATS_RL:          Vvel (THERMODYNAMICS)  max=  1.40766755306418E-01
DEBUG_STATS_RL:          Vvel (THERMODYNAMICS) mean=  1.57172794915109E-03
DEBUG_STATS_RL:          Vvel (THERMODYNAMICS) S.D.=  1.43084858790700E-02
DEBUG_STATS_RL:          Wvel (THERMODYNAMICS)  min= -9.23258818377774E-05
DEBUG_STATS_RL:          Wvel (THERMODYNAMICS)  max=  1.57712885892222E-04
DEBUG_STATS_RL:          Wvel (THERMODYNAMICS) mean=  4.39383606682937E-08
DEBUG_STATS_RL:          Wvel (THERMODYNAMICS) S.D.=  1.10911168652836E-05
DEBUG_STATS_RL:         Theta (THERMODYNAMICS)  min= -1.97709501554222E+00
DEBUG_STATS_RL:         Theta (THERMODYNAMICS)  max=  3.04110603980462E+01
DEBUG_STATS_RL:         Theta (THERMODYNAMICS) mean=  3.22874284570344E+00
DEBUG_STATS_RL:         Theta (THERMODYNAMICS) S.D.=  5.87405326550439E+00
DEBUG_STATS_RL:          Salt (THERMODYNAMICS)  min=  9.99999999999997E-03
DEBUG_STATS_RL:          Salt (THERMODYNAMICS)  max=  3.74733402897063E+01
DEBUG_STATS_RL:          Salt (THERMODYNAMICS) mean=  1.88549258438662E+01
DEBUG_STATS_RL:          Salt (THERMODYNAMICS) S.D.=  1.73004451670536E+01
DEBUG_STATS_RL:         GtNm1 (THERMODYNAMICS)  min= -5.72147651003208E-06
DEBUG_STATS_RL:         GtNm1 (THERMODYNAMICS)  max=  3.00842800729069E-06
DEBUG_STATS_RL:         GtNm1 (THERMODYNAMICS) mean=  3.13165642490371E-09
DEBUG_STATS_RL:         GtNm1 (THERMODYNAMICS) S.D.=  1.85796934041987E-07
DEBUG_STATS_RL:         GsNm1 (THERMODYNAMICS)  min= -5.60851686931875E-07
DEBUG_STATS_RL:         GsNm1 (THERMODYNAMICS)  max=  3.66182886663145E-07
DEBUG_STATS_RL:         GsNm1 (THERMODYNAMICS) mean= -2.06653535904914E-10
DEBUG_STATS_RL:         GsNm1 (THERMODYNAMICS) S.D.=  1.85491556054227E-08
DEBUG_STATS_RL:                EtaN (DYNAMICS)  min= -1.75816728458989E+00
DEBUG_STATS_RL:                EtaN (DYNAMICS)  max=  7.99690831260445E-01
DEBUG_STATS_RL:                EtaN (DYNAMICS) mean= -1.79903156373381E-01
DEBUG_STATS_RL:                EtaN (DYNAMICS) S.D.=  6.82592924931108E-01
DEBUG_STATS_RL:                Uvel (DYNAMICS)  min= -1.34602946822489E-01
DEBUG_STATS_RL:                Uvel (DYNAMICS)  max=  1.77667308250350E-01
DEBUG_STATS_RL:                Uvel (DYNAMICS) mean=  4.84722525063760E-03
DEBUG_STATS_RL:                Uvel (DYNAMICS) S.D.=  2.25494894574616E-02
DEBUG_STATS_RL:                Vvel (DYNAMICS)  min= -9.66064730968928E-02
DEBUG_STATS_RL:                Vvel (DYNAMICS)  max=  1.40766755306418E-01
DEBUG_STATS_RL:                Vvel (DYNAMICS) mean=  1.57172794915109E-03
DEBUG_STATS_RL:                Vvel (DYNAMICS) S.D.=  1.43084858790700E-02
DEBUG_STATS_RL:                Wvel (DYNAMICS)  min= -9.23258818377774E-05
DEBUG_STATS_RL:                Wvel (DYNAMICS)  max=  1.57712885892222E-04
DEBUG_STATS_RL:                Wvel (DYNAMICS) mean=  4.39383606682937E-08
DEBUG_STATS_RL:                Wvel (DYNAMICS) S.D.=  1.10911168652836E-05
DEBUG_STATS_RL:               Theta (DYNAMICS)  min= -1.97709501554222E+00
DEBUG_STATS_RL:               Theta (DYNAMICS)  max=  3.04110603980462E+01
DEBUG_STATS_RL:               Theta (DYNAMICS) mean=  3.22874284570344E+00
DEBUG_STATS_RL:               Theta (DYNAMICS) S.D.=  5.87405326550439E+00
DEBUG_STATS_RL:                Salt (DYNAMICS)  min=  9.99999999999997E-03
DEBUG_STATS_RL:                Salt (DYNAMICS)  max=  3.74733402897063E+01
DEBUG_STATS_RL:                Salt (DYNAMICS) mean=  1.88549258438662E+01
DEBUG_STATS_RL:                Salt (DYNAMICS) S.D.=  1.73004451670536E+01
DEBUG_STATS_RL:                  Gu (DYNAMICS)  min= -1.31654305744585E-01
DEBUG_STATS_RL:                  Gu (DYNAMICS)  max=  1.77245727011638E-01
DEBUG_STATS_RL:                  Gu (DYNAMICS) mean=  4.86525907680475E-03
DEBUG_STATS_RL:                  Gu (DYNAMICS) S.D.=  2.25310461795985E-02
DEBUG_STATS_RL:                  Gv (DYNAMICS)  min= -9.40209124488591E-02
DEBUG_STATS_RL:                  Gv (DYNAMICS)  max=  1.43534695001072E-01
DEBUG_STATS_RL:                  Gv (DYNAMICS) mean=  3.89627341081979E-03
DEBUG_STATS_RL:                  Gv (DYNAMICS) S.D.=  1.59036597820987E-02
DEBUG_STATS_RL:               GuNm1 (DYNAMICS)  min= -9.59527901833860E-06
DEBUG_STATS_RL:               GuNm1 (DYNAMICS)  max=  9.12532824819746E-06
DEBUG_STATS_RL:               GuNm1 (DYNAMICS) mean=  4.58397295541444E-10
DEBUG_STATS_RL:               GuNm1 (DYNAMICS) S.D.=  1.18732754501434E-06
DEBUG_STATS_RL:               GvNm1 (DYNAMICS)  min= -9.46840441181017E-06
DEBUG_STATS_RL:               GvNm1 (DYNAMICS)  max=  1.63060967584875E-05
DEBUG_STATS_RL:               GvNm1 (DYNAMICS) mean=  7.44378740581180E-07
DEBUG_STATS_RL:               GvNm1 (DYNAMICS) S.D.=  2.62220388087659E-06
DEBUG_STATS_RL:               GtNm1 (DYNAMICS)  min= -5.72147651003208E-06
DEBUG_STATS_RL:               GtNm1 (DYNAMICS)  max=  3.00842800729069E-06
DEBUG_STATS_RL:               GtNm1 (DYNAMICS) mean=  3.13165642490371E-09
DEBUG_STATS_RL:               GtNm1 (DYNAMICS) S.D.=  1.85796934041987E-07
DEBUG_STATS_RL:               GsNm1 (DYNAMICS)  min= -5.60851686931875E-07
DEBUG_STATS_RL:               GsNm1 (DYNAMICS)  max=  3.66182886663145E-07
DEBUG_STATS_RL:               GsNm1 (DYNAMICS) mean= -2.06653535904914E-10
DEBUG_STATS_RL:               GsNm1 (DYNAMICS) S.D.=  1.85491556054227E-08
DEBUG_STATS_RL:    cg2d_b (SOLVE_FOR_PRESSURE)  min= -2.03802847111535E+04
DEBUG_STATS_RL:    cg2d_b (SOLVE_FOR_PRESSURE)  max=  2.51177110987041E+04
DEBUG_STATS_RL:    cg2d_b (SOLVE_FOR_PRESSURE) mean=  3.89446828111883E+00
DEBUG_STATS_RL:    cg2d_b (SOLVE_FOR_PRESSURE) S.D.=  3.78805860036686E+03
 cg2d: Sum(rhs),rhsMax =   3.58937724674053E-01  1.64979851576840E+00
(PID.TID 0000.0001)  cg2d: iter=     1 ; resid.=  1.08634076471322E-01
(PID.TID 0000.0001)  cg2d: iter=     2 ; resid.=  9.16695916388238E-02
(PID.TID 0000.0001)  cg2d: iter=     3 ; resid.=  8.83269423571503E-02
(PID.TID 0000.0001)  cg2d: iter=     4 ; resid.=  7.31513673049853E-02
(PID.TID 0000.0001)  cg2d: iter=     5 ; resid.=  7.36295479605890E-02
(PID.TID 0000.0001)  cg2d: iter=     6 ; resid.=  6.62085447362836E-02
(PID.TID 0000.0001)  cg2d: iter=     7 ; resid.=  5.51215495211400E-02
(PID.TID 0000.0001)  cg2d: iter=     8 ; resid.=  4.19161904824829E-02
(PID.TID 0000.0001)  cg2d: iter=     9 ; resid.=  3.10424190143167E-02
(PID.TID 0000.0001)  cg2d: iter=    10 ; resid.=  2.57990014995687E-02
(PID.TID 0000.0001)  cg2d: iter=    11 ; resid.=  2.34536867512722E-02
(PID.TID 0000.0001)  cg2d: iter=    12 ; resid.=  2.04927825086136E-02
(PID.TID 0000.0001)  cg2d: iter=    13 ; resid.=  1.72437605221935E-02
(PID.TID 0000.0001)  cg2d: iter=    14 ; resid.=  1.45159822407292E-02
(PID.TID 0000.0001)  cg2d: iter=    15 ; resid.=  1.07943311557355E-02
(PID.TID 0000.0001)  cg2d: iter=    16 ; resid.=  9.02486522728294E-03
(PID.TID 0000.0001)  cg2d: iter=    17 ; resid.=  7.94787142041587E-03
(PID.TID 0000.0001)  cg2d: iter=    18 ; resid.=  7.07367782448256E-03
(PID.TID 0000.0001)  cg2d: iter=    19 ; resid.=  5.99882981881107E-03
(PID.TID 0000.0001)  cg2d: iter=    20 ; resid.=  4.63880453539116E-03
(PID.TID 0000.0001)  cg2d: iter=    21 ; resid.=  3.63859889901178E-03
(PID.TID 0000.0001)  cg2d: iter=    22 ; resid.=  3.22256628117787E-03
(PID.TID 0000.0001)  cg2d: iter=    23 ; resid.=  2.64043298533990E-03
(PID.TID 0000.0001)  cg2d: iter=    24 ; resid.=  2.31467976848989E-03
(PID.TID 0000.0001)  cg2d: iter=    25 ; resid.=  2.12293204971344E-03
(PID.TID 0000.0001)  cg2d: iter=    26 ; resid.=  1.64610981143249E-03
(PID.TID 0000.0001)  cg2d: iter=    27 ; resid.=  1.38907994728330E-03
(PID.TID 0000.0001)  cg2d: iter=    28 ; resid.=  1.08985130779258E-03
(PID.TID 0000.0001)  cg2d: iter=    29 ; resid.=  8.06182846986970E-04
(PID.TID 0000.0001)  cg2d: iter=    30 ; resid.=  6.62923331996243E-04
(PID.TID 0000.0001)  cg2d: iter=    31 ; resid.=  5.79414024870061E-04
(PID.TID 0000.0001)  cg2d: iter=    32 ; resid.=  4.70665573549637E-04
(PID.TID 0000.0001)  cg2d: iter=    33 ; resid.=  3.92628165990242E-04
(PID.TID 0000.0001)  cg2d: iter=    34 ; resid.=  3.34551089212270E-04
(PID.TID 0000.0001)  cg2d: iter=    35 ; resid.=  2.74764549479163E-04
(PID.TID 0000.0001)  cg2d: iter=    36 ; resid.=  2.35677529450196E-04
(PID.TID 0000.0001)  cg2d: iter=    37 ; resid.=  1.94221811214807E-04
(PID.TID 0000.0001)  cg2d: iter=    38 ; resid.=  1.79110995546501E-04
(PID.TID 0000.0001)  cg2d: iter=    39 ; resid.=  1.61624108458466E-04
(PID.TID 0000.0001)  cg2d: iter=    40 ; resid.=  1.38904919170234E-04
(PID.TID 0000.0001)  cg2d: iter=    41 ; resid.=  1.22012290403810E-04
(PID.TID 0000.0001)  cg2d: iter=    42 ; resid.=  1.04805320231699E-04
(PID.TID 0000.0001)  cg2d: iter=    43 ; resid.=  8.26021804754876E-05
(PID.TID 0000.0001)  cg2d: iter=    44 ; resid.=  6.71440304033523E-05
(PID.TID 0000.0001)  cg2d: iter=    45 ; resid.=  5.24518721853886E-05
(PID.TID 0000.0001)  cg2d: iter=    46 ; resid.=  4.03034117336352E-05
(PID.TID 0000.0001)  cg2d: iter=    47 ; resid.=  3.47971051532245E-05
(PID.TID 0000.0001)  cg2d: iter=    48 ; resid.=  2.73737259502813E-05
(PID.TID 0000.0001)  cg2d: iter=    49 ; resid.=  2.26014422904563E-05
(PID.TID 0000.0001)  cg2d: iter=    50 ; resid.=  1.96486801577181E-05
(PID.TID 0000.0001)  cg2d: iter=    51 ; resid.=  1.73233271176962E-05
(PID.TID 0000.0001)  cg2d: iter=    52 ; resid.=  1.62038505495057E-05
(PID.TID 0000.0001)  cg2d: iter=    53 ; resid.=  1.31578561296699E-05
(PID.TID 0000.0001)  cg2d: iter=    54 ; resid.=  1.01498387879332E-05
(PID.TID 0000.0001)  cg2d: iter=    55 ; resid.=  8.44291685319423E-06
(PID.TID 0000.0001)  cg2d: iter=    56 ; resid.=  7.08708789534091E-06
(PID.TID 0000.0001)  cg2d: iter=    57 ; resid.=  5.76874783998633E-06
(PID.TID 0000.0001)  cg2d: iter=    58 ; resid.=  4.81640389389982E-06
(PID.TID 0000.0001)  cg2d: iter=    59 ; resid.=  3.94769451868278E-06
(PID.TID 0000.0001)  cg2d: iter=    60 ; resid.=  2.95615948823742E-06
(PID.TID 0000.0001)  cg2d: iter=    61 ; resid.=  2.29999128824413E-06
(PID.TID 0000.0001)  cg2d: iter=    62 ; resid.=  1.96830925628346E-06
(PID.TID 0000.0001)  cg2d: iter=    63 ; resid.=  1.61764797953725E-06
(PID.TID 0000.0001)  cg2d: iter=    64 ; resid.=  1.39190050127647E-06
(PID.TID 0000.0001)  cg2d: iter=    65 ; resid.=  1.12309166959281E-06
(PID.TID 0000.0001)  cg2d: iter=    66 ; resid.=  9.57352503605011E-07
(PID.TID 0000.0001)  cg2d: iter=    67 ; resid.=  8.45999521094445E-07
(PID.TID 0000.0001)  cg2d: iter=    68 ; resid.=  6.82495940296620E-07
(PID.TID 0000.0001)  cg2d: iter=    69 ; resid.=  5.60114780288097E-07
(PID.TID 0000.0001)  cg2d: iter=    70 ; resid.=  4.86325359364648E-07
(PID.TID 0000.0001)  cg2d: iter=    71 ; resid.=  4.08723673703154E-07
(PID.TID 0000.0001)  cg2d: iter=    72 ; resid.=  3.22721720686505E-07
(PID.TID 0000.0001)  cg2d: iter=    73 ; resid.=  2.72924786833230E-07
(PID.TID 0000.0001)  cg2d: iter=    74 ; resid.=  2.21134093811395E-07
(PID.TID 0000.0001)  cg2d: iter=    75 ; resid.=  1.76914850714331E-07
(PID.TID 0000.0001)  cg2d: iter=    76 ; resid.=  1.49849229556317E-07
(PID.TID 0000.0001)  cg2d: iter=    77 ; resid.=  1.34729476433246E-07
(PID.TID 0000.0001)  cg2d: iter=    78 ; resid.=  1.11622208331932E-07
(PID.TID 0000.0001)  cg2d: iter=    79 ; resid.=  8.46088103235124E-08
(PID.TID 0000.0001)  cg2d: iter=    80 ; resid.=  6.22020459514948E-08
(PID.TID 0000.0001)  cg2d: iter=    81 ; resid.=  4.78627505108778E-08
(PID.TID 0000.0001)  cg2d: iter=    82 ; resid.=  3.63740945470444E-08
(PID.TID 0000.0001)  cg2d: iter=    83 ; resid.=  2.67661328100715E-08
(PID.TID 0000.0001)  cg2d: iter=    84 ; resid.=  1.89887078043839E-08
(PID.TID 0000.0001)  cg2d: iter=    85 ; resid.=  1.40614860688827E-08
(PID.TID 0000.0001)  cg2d: iter=    86 ; resid.=  1.09389888153703E-08
(PID.TID 0000.0001)  cg2d: iter=    87 ; resid.=  8.92965831093195E-09
(PID.TID 0000.0001)  cg2d: iter=    88 ; resid.=  7.02258010538745E-09
(PID.TID 0000.0001)  cg2d: iter=    89 ; resid.=  5.94819379975008E-09
(PID.TID 0000.0001)  cg2d: iter=    90 ; resid.=  4.77499033425236E-09
(PID.TID 0000.0001)  cg2d: iter=    91 ; resid.=  3.60854244729252E-09
(PID.TID 0000.0001)  cg2d: iter=    92 ; resid.=  2.64081103762774E-09
(PID.TID 0000.0001)  cg2d: iter=    93 ; resid.=  2.00225873631064E-09
(PID.TID 0000.0001)  cg2d: iter=    94 ; resid.=  1.63127175761381E-09
(PID.TID 0000.0001)  cg2d: iter=    95 ; resid.=  1.29860198036049E-09
(PID.TID 0000.0001)  cg2d: iter=    96 ; resid.=  9.25361573838656E-10
(PID.TID 0000.0001)  cg2d: iter=    97 ; resid.=  6.74254450461554E-10
(PID.TID 0000.0001)  cg2d: iter=    98 ; resid.=  5.56451900397833E-10
(PID.TID 0000.0001)  cg2d: iter=    99 ; resid.=  4.50587697266982E-10
(PID.TID 0000.0001)  cg2d: iter=   100 ; resid.=  4.19321350189081E-10
(PID.TID 0000.0001)  cg2d: iter=   101 ; resid.=  3.43218296801883E-10
(PID.TID 0000.0001)  cg2d: iter=   102 ; resid.=  2.70602501171076E-10
(PID.TID 0000.0001)  cg2d: iter=   103 ; resid.=  2.15455412433863E-10
(PID.TID 0000.0001)  cg2d: iter=   104 ; resid.=  1.72223607580331E-10
(PID.TID 0000.0001)  cg2d: iter=   105 ; resid.=  1.45637765809603E-10
(PID.TID 0000.0001)  cg2d: iter=   106 ; resid.=  1.38262586421187E-10
(PID.TID 0000.0001)  cg2d: iter=   107 ; resid.=  1.10665951214519E-10
(PID.TID 0000.0001)  cg2d: iter=   108 ; resid.=  8.55982131809652E-11
(PID.TID 0000.0001)  cg2d: iter=   109 ; resid.=  6.40395857524928E-11
(PID.TID 0000.0001)  cg2d: iter=   110 ; resid.=  4.99648783169043E-11
(PID.TID 0000.0001)  cg2d: iter=   111 ; resid.=  3.89798047963220E-11
(PID.TID 0000.0001)  cg2d: iter=   112 ; resid.=  3.05890353305308E-11
(PID.TID 0000.0001)  cg2d: iter=   113 ; resid.=  2.25195010018685E-11
(PID.TID 0000.0001)  cg2d: iter=   114 ; resid.=  1.84677786537562E-11
(PID.TID 0000.0001)  cg2d: iter=   115 ; resid.=  1.43049955190808E-11
(PID.TID 0000.0001)  cg2d: iter=   116 ; resid.=  1.06808835695647E-11
(PID.TID 0000.0001)  cg2d: iter=   117 ; resid.=  8.81563466629690E-12
(PID.TID 0000.0001)  cg2d: iter=   118 ; resid.=  7.44254168767709E-12
(PID.TID 0000.0001)  cg2d: iter=   119 ; resid.=  5.76659603520466E-12
(PID.TID 0000.0001)  cg2d: iter=   120 ; resid.=  3.96183360597104E-12
(PID.TID 0000.0001)  cg2d: iter=   121 ; resid.=  2.82844180081742E-12
(PID.TID 0000.0001)  cg2d: iter=   122 ; resid.=  2.19209730380162E-12
(PID.TID 0000.0001)  cg2d: iter=   123 ; resid.=  1.81552721220639E-12
(PID.TID 0000.0001)  cg2d: iter=   124 ; resid.=  1.30032335663425E-12
(PID.TID 0000.0001)  cg2d: iter=   125 ; resid.=  8.96991033585207E-13
(PID.TID 0000.0001)  cg2d: iter=   126 ; resid.=  6.02577623766803E-13
(PID.TID 0000.0001)  cg2d: iter=   127 ; resid.=  4.09089992796939E-13
(PID.TID 0000.0001)  cg2d: iter=   128 ; resid.=  2.98258764822238E-13
(PID.TID 0000.0001)  cg2d: iter=   129 ; resid.=  2.22889647442201E-13
(PID.TID 0000.0001)  cg2d: iter=   130 ; resid.=  1.84082237817213E-13
(PID.TID 0000.0001)  cg2d: iter=   131 ; resid.=  1.48268864850443E-13
(PID.TID 0000.0001)  cg2d: iter=   132 ; resid.=  1.05567626899149E-13
(PID.TID 0000.0001)  cg2d: iter=   133 ; resid.=  8.15581393739384E-14
DEBUG_STATS_RL:    cg2d_x (SOLVE_FOR_PRESSURE)  min= -1.72674984926701E+01
DEBUG_STATS_RL:    cg2d_x (SOLVE_FOR_PRESSURE)  max=  7.58850241361075E+00
DEBUG_STATS_RL:    cg2d_x (SOLVE_FOR_PRESSURE) mean= -1.75953843786349E+00
DEBUG_STATS_RL:    cg2d_x (SOLVE_FOR_PRESSURE) S.D.=  6.67461839797619E+00
(PID.TID 0000.0001)      cg2d_init_res =   2.96526195278363E-01
(PID.TID 0000.0001)      cg2d_iters(min,last) =      -1     133
(PID.TID 0000.0001)      cg2d_last_res =   8.15581393739384E-14
(PID.TID 0000.0001) // =======================================================
(PID.TID 0000.0001) // Begin MONITOR dynamic field statistics
(PID.TID 0000.0001) // =======================================================
(PID.TID 0000.0001) %MON time_tsnumber                =                    54
(PID.TID 0000.0001) %MON time_secondsf                =   4.6656000000000E+06
(PID.TID 0000.0001) %MON dynstat_eta_max              =   7.7354764664733E-01
(PID.TID 0000.0001) %MON dynstat_eta_min              =  -1.7601935262661E+00
(PID.TID 0000.0001) %MON dynstat_eta_mean             =  -4.0633947532223E-03
(PID.TID 0000.0001) %MON dynstat_eta_sd               =   5.8507165951976E-01
(PID.TID 0000.0001) %MON dynstat_eta_del2             =   2.3197778215543E-03
(PID.TID 0000.0001) %MON dynstat_uvel_max             =   1.7173507585894E-01
(PID.TID 0000.0001) %MON dynstat_uvel_min             =  -1.3256858596918E-01
(PID.TID 0000.0001) %MON dynstat_uvel_mean            =   1.6231195959357E-03
(PID.TID 0000.0001) %MON dynstat_uvel_sd              =   1.4259253205636E-02
(PID.TID 0000.0001) %MON dynstat_uvel_del2            =   8.7274502288011E-05
(PID.TID 0000.0001) %MON dynstat_vvel_max             =   1.4190014901568E-01
(PID.TID 0000.0001) %MON dynstat_vvel_min             =  -9.3950121251005E-02
(PID.TID 0000.0001) %MON dynstat_vvel_mean            =   4.9010495706408E-05
(PID.TID 0000.0001) %MON dynstat_vvel_sd              =   8.8328932152725E-03
(PID.TID 0000.0001) %MON dynstat_vvel_del2            =   7.4629978809222E-05
(PID.TID 0000.0001) %MON dynstat_wvel_max             =   1.5553819257891E-04
(PID.TID 0000.0001) %MON dynstat_wvel_min             =  -8.5937912852052E-05
(PID.TID 0000.0001) %MON dynstat_wvel_mean            =  -2.5987533626750E-23
(PID.TID 0000.0001) %MON dynstat_wvel_sd              =   1.2365912858342E-05
(PID.TID 0000.0001) %MON dynstat_wvel_del2            =   1.2759124940483E-07
(PID.TID 0000.0001) %MON dynstat_theta_max            =   3.0411060398046E+01
(PID.TID 0000.0001) %MON dynstat_theta_min            =  -1.9770950155422E+00
(PID.TID 0000.0001) %MON dynstat_theta_mean           =   3.6328730024567E+00
(PID.TID 0000.0001) %MON dynstat_theta_sd             =   4.4223518612549E+00
(PID.TID 0000.0001) %MON dynstat_theta_del2           =   4.8302594295300E-03
(PID.TID 0000.0001) %MON dynstat_salt_max             =   3.7473340289706E+01
(PID.TID 0000.0001) %MON dynstat_salt_min             =   2.9865659828490E+01
(PID.TID 0000.0001) %MON dynstat_salt_mean            =   3.4727984800575E+01
(PID.TID 0000.0001) %MON dynstat_salt_sd              =   2.9640145867433E-01
(PID.TID 0000.0001) %MON dynstat_salt_del2            =   9.8849596870186E-04
(PID.TID 0000.0001) %MON dynstat_sst_max              =   3.0411060398046E+01
(PID.TID 0000.0001) %MON dynstat_sst_min              =  -1.9770950155422E+00
(PID.TID 0000.0001) %MON dynstat_sst_mean             =   1.8965200560163E+01
(PID.TID 0000.0001) %MON dynstat_sst_sd               =   9.0368200691706E+00
(PID.TID 0000.0001) %MON dynstat_sst_del2             =   2.7641057118779E-02
(PID.TID 0000.0001) %MON dynstat_sss_max              =   3.7450878233720E+01
(PID.TID 0000.0001) %MON dynstat_sss_min              =   2.9865659828490E+01
(PID.TID 0000.0001) %MON dynstat_sss_mean             =   3.4852625246064E+01
(PID.TID 0000.0001) %MON dynstat_sss_sd               =   9.7885427247756E-01
(PID.TID 0000.0001) %MON dynstat_sss_del2             =   7.9410923456193E-03
(PID.TID 0000.0001) %MON forcing_qnet_max             =   3.3606702677409E+02
(PID.TID 0000.0001) %MON forcing_qnet_min             =  -1.7043973490397E+02
(PID.TID 0000.0001) %MON forcing_qnet_mean            =  -1.2178534981930E+01
(PID.TID 0000.0001) %MON forcing_qnet_sd              =   6.8564785019729E+01
(PID.TID 0000.0001) %MON forcing_qnet_del2            =   9.0838036604570E-01
(PID.TID 0000.0001) %MON forcing_qsw_max              =   0.0000000000000E+00
(PID.TID 0000.0001) %MON forcing_qsw_min              =   0.0000000000000E+00
(PID.TID 0000.0001) %MON forcing_qsw_mean             =   0.0000000000000E+00
(PID.TID 0000.0001) %MON forcing_qsw_sd               =   0.0000000000000E+00
(PID.TID 0000.0001) %MON forcing_qsw_del2             =   0.0000000000000E+00
(PID.TID 0000.0001) %MON forcing_empmr_max            =   6.9235461334453E-05
(PID.TID 0000.0001) %MON forcing_empmr_min            =  -7.4482466535149E-05
(PID.TID 0000.0001) %MON forcing_empmr_mean           =   8.3868953291453E-07
(PID.TID 0000.0001) %MON forcing_empmr_sd             =   2.7327088528464E-05
(PID.TID 0000.0001) %MON forcing_empmr_del2           =   3.5326487369371E-07
(PID.TID 0000.0001) %MON forcing_fu_max               =   3.1523034572601E-01
(PID.TID 0000.0001) %MON forcing_fu_min               =  -2.5880938669046E-01
(PID.TID 0000.0001) %MON forcing_fu_mean              =   1.8384338332303E-02
(PID.TID 0000.0001) %MON forcing_fu_sd                =   9.3654975852564E-02
(PID.TID 0000.0001) %MON forcing_fu_del2              =   7.0776369504339E-04
(PID.TID 0000.0001) %MON forcing_fv_max               =   1.6049519777298E-01
(PID.TID 0000.0001) %MON forcing_fv_min               =  -1.8779096603394E-01
(PID.TID 0000.0001) %MON forcing_fv_mean              =  -7.3001517407161E-03
(PID.TID 0000.0001) %MON forcing_fv_sd                =   4.2910526443214E-02
(PID.TID 0000.0001) %MON forcing_fv_del2              =   4.8979344061927E-04
(PID.TID 0000.0001) %MON trAdv_CFL_u_max              =   4.6457861512955E-02
(PID.TID 0000.0001) %MON trAdv_CFL_v_max              =   2.7737960185568E-02
(PID.TID 0000.0001) %MON trAdv_CFL_w_max              =   3.4939470105354E-02
(PID.TID 0000.0001) %MON advcfl_uvel_max              =   4.4897535172204E-02
(PID.TID 0000.0001) %MON advcfl_vvel_max              =   2.7568923148967E-02
(PID.TID 0000.0001) %MON advcfl_wvel_max              =   3.6817807777583E-02
(PID.TID 0000.0001) %MON advcfl_W_hf_max              =   4.2339029197449E-02
(PID.TID 0000.0001) %MON pe_b_mean                    =   4.3804655694164E-04
(PID.TID 0000.0001) %MON ke_max                       =   1.4789775563741E-02
(PID.TID 0000.0001) %MON ke_mean                      =   1.2859879468334E-04
(PID.TID 0000.0001) %MON ke_vol                       =   1.3226782436723E+18
(PID.TID 0000.0001) %MON vort_r_min                   =  -4.6742216552640E-07
(PID.TID 0000.0001) %MON vort_r_max                   =   4.5884007992963E-07
(PID.TID 0000.0001) %MON vort_a_mean                  =  -2.5274807198589E-05
(PID.TID 0000.0001) %MON vort_a_sd                    =   7.3604517175518E-05
(PID.TID 0000.0001) %MON vort_p_mean                  =  -3.1845655548911E-05
(PID.TID 0000.0001) %MON vort_p_sd                    =   1.3162439025023E-04
(PID.TID 0000.0001) %MON surfExpan_theta_mean         =   2.7863595271712E-08
(PID.TID 0000.0001) %MON surfExpan_salt_mean          =   1.0530032174641E-07
(PID.TID 0000.0001) // =======================================================
(PID.TID 0000.0001) // End MONITOR dynamic field statistics
(PID.TID 0000.0001) // =======================================================
 EXTERNAL_FIELDS_LOAD,        54 : iP,iLd,i0,i1=    2    3    2    3 ; Wght=  0.7000000000  0.3000000000
 EXTERNAL_FIELDS_LOAD: (fu0,1),fu,fv= -1.4435E-02 -2.7199E-02 -1.8264E-02 -1.2518E-02
 EXTERNAL_FIELDS_LOAD: SST,SSS,Q,E-P= -4.2747E-01  3.4469E+01  2.3296E+02  8.5883E-06
DEBUG_STATS_RL:          Uvel (THERMODYNAMICS)  min= -1.32568585969181E-01
DEBUG_STATS_RL:          Uvel (THERMODYNAMICS)  max=  1.71735075858937E-01
DEBUG_STATS_RL:          Uvel (THERMODYNAMICS) mean=  4.95072567504307E-03
DEBUG_STATS_RL:          Uvel (THERMODYNAMICS) S.D.=  2.22036637503611E-02
DEBUG_STATS_RL:          Vvel (THERMODYNAMICS)  min= -9.39501212510053E-02
DEBUG_STATS_RL:          Vvel (THERMODYNAMICS)  max=  1.41900149015678E-01
DEBUG_STATS_RL:          Vvel (THERMODYNAMICS) mean=  1.51996578097833E-03
DEBUG_STATS_RL:          Vvel (THERMODYNAMICS) S.D.=  1.42622088493868E-02
DEBUG_STATS_RL:          Wvel (THERMODYNAMICS)  min= -8.59379128520519E-05
DEBUG_STATS_RL:          Wvel (THERMODYNAMICS)  max=  1.55538192578910E-04
DEBUG_STATS_RL:          Wvel (THERMODYNAMICS) mean=  3.52969656466985E-08
DEBUG_STATS_RL:          Wvel (THERMODYNAMICS) S.D.=  1.09251145657436E-05
DEBUG_STATS_RL:         Theta (THERMODYNAMICS)  min= -1.97541676021222E+00
DEBUG_STATS_RL:         Theta (THERMODYNAMICS)  max=  3.04273888207282E+01
DEBUG_STATS_RL:         Theta (THERMODYNAMICS) mean=  3.22886080008664E+00
DEBUG_STATS_RL:         Theta (THERMODYNAMICS) S.D.=  5.87463135563894E+00
DEBUG_STATS_RL:          Salt (THERMODYNAMICS)  min=  9.99999999999997E-03
DEBUG_STATS_RL:          Salt (THERMODYNAMICS)  max=  3.74740311702595E+01
DEBUG_STATS_RL:          Salt (THERMODYNAMICS) mean=  1.88549164281695E+01
DEBUG_STATS_RL:          Salt (THERMODYNAMICS) S.D.=  1.73004369031828E+01
DEBUG_STATS_RL:         GtNm1 (THERMODYNAMICS)  min= -5.87200069805371E-06
DEBUG_STATS_RL:         GtNm1 (THERMODYNAMICS)  max=  3.11668427419359E-06
DEBUG_STATS_RL:         GtNm1 (THERMODYNAMICS) mean=  2.78960865241657E-09
DEBUG_STATS_RL:         GtNm1 (THERMODYNAMICS) S.D.=  1.84257088147963E-07
DEBUG_STATS_RL:         GsNm1 (THERMODYNAMICS)  min= -5.80435225709577E-07
DEBUG_STATS_RL:         GsNm1 (THERMODYNAMICS)  max=  3.79785078197344E-07
DEBUG_STATS_RL:         GsNm1 (THERMODYNAMICS) mean= -2.67808620635593E-10
DEBUG_STATS_RL:         GsNm1 (THERMODYNAMICS) S.D.=  1.85734157306222E-08
DEBUG_STATS_RL:                EtaN (DYNAMICS)  min= -1.76019352626612E+00
DEBUG_STATS_RL:                EtaN (DYNAMICS)  max=  7.73547646647329E-01
DEBUG_STATS_RL:                EtaN (DYNAMICS) mean= -1.79361716397911E-01
DEBUG_STATS_RL:                EtaN (DYNAMICS) S.D.=  6.80389235267712E-01
DEBUG_STATS_RL:                Uvel (DYNAMICS)  min= -1.32568585969181E-01
DEBUG_STATS_RL:                Uvel (DYNAMICS)  max=  1.71735075858937E-01
DEBUG_STATS_RL:                Uvel (DYNAMICS) mean=  4.95072567504307E-03
DEBUG_STATS_RL:                Uvel (DYNAMICS) S.D.=  2.22036637503611E-02
DEBUG_STATS_RL:                Vvel (DYNAMICS)  min= -9.39501212510053E-02
DEBUG_STATS_RL:                Vvel (DYNAMICS)  max=  1.41900149015678E-01
DEBUG_STATS_RL:                Vvel (DYNAMICS) mean=  1.51996578097833E-03
DEBUG_STATS_RL:                Vvel (DYNAMICS) S.D.=  1.42622088493868E-02
DEBUG_STATS_RL:                Wvel (DYNAMICS)  min= -8.59379128520519E-05
DEBUG_STATS_RL:                Wvel (DYNAMICS)  max=  1.55538192578910E-04
DEBUG_STATS_RL:                Wvel (DYNAMICS) mean=  3.52969656466985E-08
DEBUG_STATS_RL:                Wvel (DYNAMICS) S.D.=  1.09251145657436E-05
DEBUG_STATS_RL:               Theta (DYNAMICS)  min= -1.97541676021222E+00
DEBUG_STATS_RL:               Theta (DYNAMICS)  max=  3.04273888207282E+01
DEBUG_STATS_RL:               Theta (DYNAMICS) mean=  3.22886080008664E+00
DEBUG_STATS_RL:               Theta (DYNAMICS) S.D.=  5.87463135563894E+00
DEBUG_STATS_RL:                Salt (DYNAMICS)  min=  9.99999999999997E-03
DEBUG_STATS_RL:                Salt (DYNAMICS)  max=  3.74740311702595E+01
DEBUG_STATS_RL:                Salt (DYNAMICS) mean=  1.88549164281695E+01
DEBUG_STATS_RL:                Salt (DYNAMICS) S.D.=  1.73004369031828E+01
DEBUG_STATS_RL:                  Gu (DYNAMICS)  min= -1.30196180522367E-01
DEBUG_STATS_RL:                  Gu (DYNAMICS)  max=  1.69978217409159E-01
DEBUG_STATS_RL:                  Gu (DYNAMICS) mean=  4.97013410121418E-03
DEBUG_STATS_RL:                  Gu (DYNAMICS) S.D.=  2.22062827652790E-02
DEBUG_STATS_RL:                  Gv (DYNAMICS)  min= -9.20870839876956E-02
DEBUG_STATS_RL:                  Gv (DYNAMICS)  max=  1.44417721295903E-01
DEBUG_STATS_RL:                  Gv (DYNAMICS) mean=  3.84786616952947E-03
DEBUG_STATS_RL:                  Gv (DYNAMICS) S.D.=  1.58604599860409E-02
DEBUG_STATS_RL:               GuNm1 (DYNAMICS)  min= -9.62818303504303E-06
DEBUG_STATS_RL:               GuNm1 (DYNAMICS)  max=  9.17679535012372E-06
DEBUG_STATS_RL:               GuNm1 (DYNAMICS) mean=  1.39334312466549E-09
DEBUG_STATS_RL:               GuNm1 (DYNAMICS) S.D.=  1.18901991548439E-06
DEBUG_STATS_RL:               GvNm1 (DYNAMICS)  min= -9.51410211510901E-06
DEBUG_STATS_RL:               GvNm1 (DYNAMICS)  max=  1.62534431029798E-05
DEBUG_STATS_RL:               GvNm1 (DYNAMICS) mean=  7.44042380503582E-07
DEBUG_STATS_RL:               GvNm1 (DYNAMICS) S.D.=  2.62690686152983E-06
DEBUG_STATS_RL:               GtNm1 (DYNAMICS)  min= -5.87200069805371E-06
DEBUG_STATS_RL:               GtNm1 (DYNAMICS)  max=  3.11668427419359E-06
DEBUG_STATS_RL:               GtNm1 (DYNAMICS) mean=  2.78960865241657E-09
DEBUG_STATS_RL:               GtNm1 (DYNAMICS) S.D.=  1.84257088147963E-07
DEBUG_STATS_RL:               GsNm1 (DYNAMICS)  min= -5.80435225709577E-07
DEBUG_STATS_RL:               GsNm1 (DYNAMICS)  max=  3.79785078197344E-07
DEBUG_STATS_RL:               GsNm1 (DYNAMICS) mean= -2.67808620635593E-10
DEBUG_STATS_RL:               GsNm1 (DYNAMICS) S.D.=  1.85734157306222E-08
DEBUG_STATS_RL:    cg2d_b (SOLVE_FOR_PRESSURE)  min= -2.03641592946770E+04
DEBUG_STATS_RL:    cg2d_b (SOLVE_FOR_PRESSURE)  max=  2.53426782903193E+04
DEBUG_STATS_RL:    cg2d_b (SOLVE_FOR_PRESSURE) mean=  3.96052272235733E+00
DEBUG_STATS_RL:    cg2d_b (SOLVE_FOR_PRESSURE) S.D.=  3.80730251436735E+03
 cg2d: Sum(rhs),rhsMax =   3.61785364483788E-01  1.66457496324663E+00
(PID.TID 0000.0001)  cg2d: iter=     1 ; resid.=  1.03502363552578E-01
(PID.TID 0000.0001)  cg2d: iter=     2 ; resid.=  8.47575929556274E-02
(PID.TID 0000.0001)  cg2d: iter=     3 ; resid.=  7.94787868075241E-02
(PID.TID 0000.0001)  cg2d: iter=     4 ; resid.=  6.58077889507799E-02
(PID.TID 0000.0001)  cg2d: iter=     5 ; resid.=  6.50033822972644E-02
(PID.TID 0000.0001)  cg2d: iter=     6 ; resid.=  5.71655256023545E-02
(PID.TID 0000.0001)  cg2d: iter=     7 ; resid.=  4.87501463869823E-02
(PID.TID 0000.0001)  cg2d: iter=     8 ; resid.=  3.82837976887301E-02
(PID.TID 0000.0001)  cg2d: iter=     9 ; resid.=  2.87482666928825E-02
(PID.TID 0000.0001)  cg2d: iter=    10 ; resid.=  2.43158738336870E-02
(PID.TID 0000.0001)  cg2d: iter=    11 ; resid.=  2.22323560738536E-02
(PID.TID 0000.0001)  cg2d: iter=    12 ; resid.=  1.91844028066127E-02
(PID.TID 0000.0001)  cg2d: iter=    13 ; resid.=  1.57778978446917E-02
(PID.TID 0000.0001)  cg2d: iter=    14 ; resid.=  1.31054912060781E-02
(PID.TID 0000.0001)  cg2d: iter=    15 ; resid.=  9.87755489887334E-03
(PID.TID 0000.0001)  cg2d: iter=    16 ; resid.=  8.43803616732839E-03
(PID.TID 0000.0001)  cg2d: iter=    17 ; resid.=  7.43078752448537E-03
(PID.TID 0000.0001)  cg2d: iter=    18 ; resid.=  6.66485390162145E-03
(PID.TID 0000.0001)  cg2d: iter=    19 ; resid.=  5.62548697257750E-03
(PID.TID 0000.0001)  cg2d: iter=    20 ; resid.=  4.31668497266364E-03
(PID.TID 0000.0001)  cg2d: iter=    21 ; resid.=  3.38038527251369E-03
(PID.TID 0000.0001)  cg2d: iter=    22 ; resid.=  2.99929440796677E-03
(PID.TID 0000.0001)  cg2d: iter=    23 ; resid.=  2.47185275567167E-03
(PID.TID 0000.0001)  cg2d: iter=    24 ; resid.=  2.17716147653985E-03
(PID.TID 0000.0001)  cg2d: iter=    25 ; resid.=  1.97188475723154E-03
(PID.TID 0000.0001)  cg2d: iter=    26 ; resid.=  1.53391837081073E-03
(PID.TID 0000.0001)  cg2d: iter=    27 ; resid.=  1.29808432796091E-03
(PID.TID 0000.0001)  cg2d: iter=    28 ; resid.=  1.03017295724675E-03
(PID.TID 0000.0001)  cg2d: iter=    29 ; resid.=  7.89524002363293E-04
(PID.TID 0000.0001)  cg2d: iter=    30 ; resid.=  6.53042012943765E-04
(PID.TID 0000.0001)  cg2d: iter=    31 ; resid.=  5.67496784449484E-04
(PID.TID 0000.0001)  cg2d: iter=    32 ; resid.=  4.59652026293979E-04
(PID.TID 0000.0001)  cg2d: iter=    33 ; resid.=  3.76089940585579E-04
(PID.TID 0000.0001)  cg2d: iter=    34 ; resid.=  3.22558912157853E-04
(PID.TID 0000.0001)  cg2d: iter=    35 ; resid.=  2.67955327530719E-04
(PID.TID 0000.0001)  cg2d: iter=    36 ; resid.=  2.29792059728078E-04
(PID.TID 0000.0001)  cg2d: iter=    37 ; resid.=  1.91088905860227E-04
(PID.TID 0000.0001)  cg2d: iter=    38 ; resid.=  1.75786078487609E-04
(PID.TID 0000.0001)  cg2d: iter=    39 ; resid.=  1.56723969610468E-04
(PID.TID 0000.0001)  cg2d: iter=    40 ; resid.=  1.36691346136950E-04
(PID.TID 0000.0001)  cg2d: iter=    41 ; resid.=  1.21099633895299E-04
(PID.TID 0000.0001)  cg2d: iter=    42 ; resid.=  1.04105674853829E-04
(PID.TID 0000.0001)  cg2d: iter=    43 ; resid.=  8.21627395379460E-05
(PID.TID 0000.0001)  cg2d: iter=    44 ; resid.=  6.51647765618694E-05
(PID.TID 0000.0001)  cg2d: iter=    45 ; resid.=  4.92331765762052E-05
(PID.TID 0000.0001)  cg2d: iter=    46 ; resid.=  3.68509741927162E-05
(PID.TID 0000.0001)  cg2d: iter=    47 ; resid.=  3.11144377959050E-05
(PID.TID 0000.0001)  cg2d: iter=    48 ; resid.=  2.48827913054022E-05
(PID.TID 0000.0001)  cg2d: iter=    49 ; resid.=  2.06903613577600E-05
(PID.TID 0000.0001)  cg2d: iter=    50 ; resid.=  1.76427144461216E-05
(PID.TID 0000.0001)  cg2d: iter=    51 ; resid.=  1.53971855548542E-05
(PID.TID 0000.0001)  cg2d: iter=    52 ; resid.=  1.39434539183117E-05
(PID.TID 0000.0001)  cg2d: iter=    53 ; resid.=  1.13842626595664E-05
(PID.TID 0000.0001)  cg2d: iter=    54 ; resid.=  9.03344350690539E-06
(PID.TID 0000.0001)  cg2d: iter=    55 ; resid.=  7.69523261674139E-06
(PID.TID 0000.0001)  cg2d: iter=    56 ; resid.=  6.66675949016440E-06
(PID.TID 0000.0001)  cg2d: iter=    57 ; resid.=  5.56424651968560E-06
(PID.TID 0000.0001)  cg2d: iter=    58 ; resid.=  4.50217037097434E-06
(PID.TID 0000.0001)  cg2d: iter=    59 ; resid.=  3.59630396403407E-06
(PID.TID 0000.0001)  cg2d: iter=    60 ; resid.=  2.67819497715273E-06
(PID.TID 0000.0001)  cg2d: iter=    61 ; resid.=  2.05935836142816E-06
(PID.TID 0000.0001)  cg2d: iter=    62 ; resid.=  1.79180094874197E-06
(PID.TID 0000.0001)  cg2d: iter=    63 ; resid.=  1.47095711934251E-06
(PID.TID 0000.0001)  cg2d: iter=    64 ; resid.=  1.24826094687344E-06
(PID.TID 0000.0001)  cg2d: iter=    65 ; resid.=  1.00444392412654E-06
(PID.TID 0000.0001)  cg2d: iter=    66 ; resid.=  8.37624117105670E-07
(PID.TID 0000.0001)  cg2d: iter=    67 ; resid.=  7.48976965508547E-07
(PID.TID 0000.0001)  cg2d: iter=    68 ; resid.=  6.08816227431506E-07
(PID.TID 0000.0001)  cg2d: iter=    69 ; resid.=  5.11227647256540E-07
(PID.TID 0000.0001)  cg2d: iter=    70 ; resid.=  4.45703710122241E-07
(PID.TID 0000.0001)  cg2d: iter=    71 ; resid.=  3.77347652524910E-07
(PID.TID 0000.0001)  cg2d: iter=    72 ; resid.=  2.96110615737451E-07
(PID.TID 0000.0001)  cg2d: iter=    73 ; resid.=  2.45736028295693E-07
(PID.TID 0000.0001)  cg2d: iter=    74 ; resid.=  1.95663612906127E-07
(PID.TID 0000.0001)  cg2d: iter=    75 ; resid.=  1.55934115482701E-07
(PID.TID 0000.0001)  cg2d: iter=    76 ; resid.=  1.32550503543073E-07
(PID.TID 0000.0001)  cg2d: iter=    77 ; resid.=  1.17589724941771E-07
(PID.TID 0000.0001)  cg2d: iter=    78 ; resid.=  1.00689903385140E-07
(PID.TID 0000.0001)  cg2d: iter=    79 ; resid.=  7.90040824688163E-08
(PID.TID 0000.0001)  cg2d: iter=    80 ; resid.=  5.79583845469203E-08
(PID.TID 0000.0001)  cg2d: iter=    81 ; resid.=  4.54132453497462E-08
(PID.TID 0000.0001)  cg2d: iter=    82 ; resid.=  3.45961319770847E-08
(PID.TID 0000.0001)  cg2d: iter=    83 ; resid.=  2.57512106960718E-08
(PID.TID 0000.0001)  cg2d: iter=    84 ; resid.=  1.81035372960926E-08
(PID.TID 0000.0001)  cg2d: iter=    85 ; resid.=  1.30655124051429E-08
(PID.TID 0000.0001)  cg2d: iter=    86 ; resid.=  9.97410914477001E-09
(PID.TID 0000.0001)  cg2d: iter=    87 ; resid.=  8.09697921458156E-09
(PID.TID 0000.0001)  cg2d: iter=    88 ; resid.=  6.21853731855244E-09
(PID.TID 0000.0001)  cg2d: iter=    89 ; resid.=  5.10658261480244E-09
(PID.TID 0000.0001)  cg2d: iter=    90 ; resid.=  4.20981817526481E-09
(PID.TID 0000.0001)  cg2d: iter=    91 ; resid.=  3.18162583109937E-09
(PID.TID 0000.0001)  cg2d: iter=    92 ; resid.=  2.29089589419125E-09
(PID.TID 0000.0001)  cg2d: iter=    93 ; resid.=  1.74969482706319E-09
(PID.TID 0000.0001)  cg2d: iter=    94 ; resid.=  1.44038572085279E-09
(PID.TID 0000.0001)  cg2d: iter=    95 ; resid.=  1.20466699638331E-09
(PID.TID 0000.0001)  cg2d: iter=    96 ; resid.=  9.04108897262165E-10
(PID.TID 0000.0001)  cg2d: iter=    97 ; resid.=  6.74148664635270E-10
(PID.TID 0000.0001)  cg2d: iter=    98 ; resid.=  5.73245499991375E-10
(PID.TID 0000.0001)  cg2d: iter=    99 ; resid.=  4.64978420172372E-10
(PID.TID 0000.0001)  cg2d: iter=   100 ; resid.=  4.24974894252724E-10
(PID.TID 0000.0001)  cg2d: iter=   101 ; resid.=  3.42610744264129E-10
(PID.TID 0000.0001)  cg2d: iter=   102 ; resid.=  2.68090908968711E-10
(PID.TID 0000.0001)  cg2d: iter=   103 ; resid.=  2.15723090909583E-10
(PID.TID 0000.0001)  cg2d: iter=   104 ; resid.=  1.73554753491303E-10
(PID.TID 0000.0001)  cg2d: iter=   105 ; resid.=  1.44926420063973E-10
(PID.TID 0000.0001)  cg2d: iter=   106 ; resid.=  1.32745196404326E-10
(PID.TID 0000.0001)  cg2d: iter=   107 ; resid.=  1.05680374409026E-10
(PID.TID 0000.0001)  cg2d: iter=   108 ; resid.=  8.25286868327257E-11
(PID.TID 0000.0001)  cg2d: iter=   109 ; resid.=  6.23408381621551E-11
(PID.TID 0000.0001)  cg2d: iter=   110 ; resid.=  4.99612708440694E-11
(PID.TID 0000.0001)  cg2d: iter=   111 ; resid.=  3.84961331558508E-11
(PID.TID 0000.0001)  cg2d: iter=   112 ; resid.=  2.88312386841938E-11
(PID.TID 0000.0001)  cg2d: iter=   113 ; resid.=  2.05890613918897E-11
(PID.TID 0000.0001)  cg2d: iter=   114 ; resid.=  1.62472424651841E-11
(PID.TID 0000.0001)  cg2d: iter=   115 ; resid.=  1.25584723424277E-11
(PID.TID 0000.0001)  cg2d: iter=   116 ; resid.=  9.68046106370411E-12
(PID.TID 0000.0001)  cg2d: iter=   117 ; resid.=  8.13725679366192E-12
(PID.TID 0000.0001)  cg2d: iter=   118 ; resid.=  7.04376589871831E-12
(PID.TID 0000.0001)  cg2d: iter=   119 ; resid.=  5.42940868649418E-12
(PID.TID 0000.0001)  cg2d: iter=   120 ; resid.=  3.73861215660077E-12
(PID.TID 0000.0001)  cg2d: iter=   121 ; resid.=  2.72705994163523E-12
(PID.TID 0000.0001)  cg2d: iter=   122 ; resid.=  2.09252185595553E-12
(PID.TID 0000.0001)  cg2d: iter=   123 ; resid.=  1.74810359946364E-12
(PID.TID 0000.0001)  cg2d: iter=   124 ; resid.=  1.27473620176098E-12
(PID.TID 0000.0001)  cg2d: iter=   125 ; resid.=  8.79219079918098E-13
(PID.TID 0000.0001)  cg2d: iter=   126 ; resid.=  5.83156761676438E-13
(PID.TID 0000.0001)  cg2d: iter=   127 ; resid.=  4.01941545999635E-13
(PID.TID 0000.0001)  cg2d: iter=   128 ; resid.=  2.90123915175621E-13
(PID.TID 0000.0001)  cg2d: iter=   129 ; resid.=  2.07888073905783E-13
(PID.TID 0000.0001)  cg2d: iter=   130 ; resid.=  1.65849103314844E-13
(PID.TID 0000.0001)  cg2d: iter=   131 ; resid.=  1.27439833121078E-13
(PID.TID 0000.0001)  cg2d: iter=   132 ; resid.=  9.14971407238812E-14
DEBUG_STATS_RL:    cg2d_x (SOLVE_FOR_PRESSURE)  min= -1.72865986417718E+01
DEBUG_STATS_RL:    cg2d_x (SOLVE_FOR_PRESSURE)  max=  7.37175212984210E+00
DEBUG_STATS_RL:    cg2d_x (SOLVE_FOR_PRESSURE) mean= -1.75500577099053E+00
DEBUG_STATS_RL:    cg2d_x (SOLVE_FOR_PRESSURE) S.D.=  6.66430309620266E+00
(PID.TID 0000.0001)      cg2d_init_res =   2.89631984755823E-01
(PID.TID 0000.0001)      cg2d_iters(min,last) =      -1     132
(PID.TID 0000.0001)      cg2d_last_res =   9.14971407238812E-14
(PID.TID 0000.0001) // =======================================================
(PID.TID 0000.0001) // Begin MONITOR dynamic field statistics
(PID.TID 0000.0001) // =======================================================
(PID.TID 0000.0001) %MON time_tsnumber                =                    55
(PID.TID 0000.0001) %MON time_secondsf                =   4.7520000000000E+06
(PID.TID 0000.0001) %MON dynstat_eta_max              =   7.5145281649774E-01
(PID.TID 0000.0001) %MON dynstat_eta_min              =  -1.7621405343294E+00
(PID.TID 0000.0001) %MON dynstat_eta_mean             =  -4.1323143721750E-03
(PID.TID 0000.0001) %MON dynstat_eta_sd               =   5.8311685392148E-01
(PID.TID 0000.0001) %MON dynstat_eta_del2             =   2.3301663059047E-03
(PID.TID 0000.0001) %MON dynstat_uvel_max             =   1.6443421490161E-01
(PID.TID 0000.0001) %MON dynstat_uvel_min             =  -1.3037359877226E-01
(PID.TID 0000.0001) %MON dynstat_uvel_mean            =   1.7205932572121E-03
(PID.TID 0000.0001) %MON dynstat_uvel_sd              =   1.4093045656146E-02
(PID.TID 0000.0001) %MON dynstat_uvel_del2            =   8.6367365398273E-05
(PID.TID 0000.0001) %MON dynstat_vvel_max             =   1.4259521916337E-01
(PID.TID 0000.0001) %MON dynstat_vvel_min             =  -9.1095125408014E-02
(PID.TID 0000.0001) %MON dynstat_vvel_mean            =   5.8495950974244E-05
(PID.TID 0000.0001) %MON dynstat_vvel_sd              =   8.8137663244373E-03
(PID.TID 0000.0001) %MON dynstat_vvel_del2            =   7.4111023775257E-05
(PID.TID 0000.0001) %MON dynstat_wvel_max             =   1.5016716714415E-04
(PID.TID 0000.0001) %MON dynstat_wvel_min             =  -7.9462109004657E-05
(PID.TID 0000.0001) %MON dynstat_wvel_mean            =  -1.9390874605520E-22
(PID.TID 0000.0001) %MON dynstat_wvel_sd              =   1.2217850436347E-05
(PID.TID 0000.0001) %MON dynstat_wvel_del2            =   1.2629692739566E-07
(PID.TID 0000.0001) %MON dynstat_theta_max            =   3.0427388820728E+01
(PID.TID 0000.0001) %MON dynstat_theta_min            =  -1.9754167602122E+00
(PID.TID 0000.0001) %MON dynstat_theta_mean           =   3.6329393987715E+00
(PID.TID 0000.0001) %MON dynstat_theta_sd             =   4.4225830154985E+00
(PID.TID 0000.0001) %MON dynstat_theta_del2           =   4.8445986574016E-03
(PID.TID 0000.0001) %MON dynstat_salt_max             =   3.7474031170260E+01
(PID.TID 0000.0001) %MON dynstat_salt_min             =   2.9868235879983E+01
(PID.TID 0000.0001) %MON dynstat_salt_mean            =   3.4727983445726E+01
(PID.TID 0000.0001) %MON dynstat_salt_sd              =   2.9640477221006E-01
(PID.TID 0000.0001) %MON dynstat_salt_del2            =   9.8948683770637E-04
(PID.TID 0000.0001) %MON dynstat_sst_max              =   3.0427388820728E+01
(PID.TID 0000.0001) %MON dynstat_sst_min              =  -1.9754167602122E+00
(PID.TID 0000.0001) %MON dynstat_sst_mean             =   1.8971065232579E+01
(PID.TID 0000.0001) %MON dynstat_sst_sd               =   9.0412360585402E+00
(PID.TID 0000.0001) %MON dynstat_sst_del2             =   2.7737295940321E-02
(PID.TID 0000.0001) %MON dynstat_sss_max              =   3.7451785577503E+01
(PID.TID 0000.0001) %MON dynstat_sss_min              =   2.9868235879983E+01
(PID.TID 0000.0001) %MON dynstat_sss_mean             =   3.4852294881101E+01
(PID.TID 0000.0001) %MON dynstat_sss_sd               =   9.7913412196263E-01
(PID.TID 0000.0001) %MON dynstat_sss_del2             =   7.9589072668026E-03
(PID.TID 0000.0001) %MON forcing_qnet_max             =   3.3326887512207E+02
(PID.TID 0000.0001) %MON forcing_qnet_min             =  -1.7014045562744E+02
(PID.TID 0000.0001) %MON forcing_qnet_mean            =  -1.1955195482304E+01
(PID.TID 0000.0001) %MON forcing_qnet_sd              =   6.7256363910996E+01
(PID.TID 0000.0001) %MON forcing_qnet_del2            =   9.0397400238124E-01
(PID.TID 0000.0001) %MON forcing_qsw_max              =   0.0000000000000E+00
(PID.TID 0000.0001) %MON forcing_qsw_min              =   0.0000000000000E+00
(PID.TID 0000.0001) %MON forcing_qsw_mean             =   0.0000000000000E+00
(PID.TID 0000.0001) %MON forcing_qsw_sd               =   0.0000000000000E+00
(PID.TID 0000.0001) %MON forcing_qsw_del2             =   0.0000000000000E+00
(PID.TID 0000.0001) %MON forcing_empmr_max            =   6.9229704990903E-05
(PID.TID 0000.0001) %MON forcing_empmr_min            =  -7.4881646128233E-05
(PID.TID 0000.0001) %MON forcing_empmr_mean           =   8.2559960204017E-07
(PID.TID 0000.0001) %MON forcing_empmr_sd             =   2.7255145290589E-05
(PID.TID 0000.0001) %MON forcing_empmr_del2           =   3.5320210303148E-07
(PID.TID 0000.0001) %MON forcing_fu_max               =   3.1678166687489E-01
(PID.TID 0000.0001) %MON forcing_fu_min               =  -2.6419401615858E-01
(PID.TID 0000.0001) %MON forcing_fu_mean              =   1.8478537921761E-02
(PID.TID 0000.0001) %MON forcing_fu_sd                =   9.3831537675814E-02
(PID.TID 0000.0001) %MON forcing_fu_del2              =   7.0632006807691E-04
(PID.TID 0000.0001) %MON forcing_fv_max               =   1.5941785573959E-01
(PID.TID 0000.0001) %MON forcing_fv_min               =  -1.8630492985249E-01
(PID.TID 0000.0001) %MON forcing_fv_mean              =  -7.3105800906856E-03
(PID.TID 0000.0001) %MON forcing_fv_sd                =   4.2714976969337E-02
(PID.TID 0000.0001) %MON forcing_fv_del2              =   4.8525323250971E-04
(PID.TID 0000.0001) %MON trAdv_CFL_u_max              =   4.4906654182710E-02
(PID.TID 0000.0001) %MON trAdv_CFL_v_max              =   2.7388038969665E-02
(PID.TID 0000.0001) %MON trAdv_CFL_w_max              =   3.4457691894405E-02
(PID.TID 0000.0001) %MON advcfl_uvel_max              =   4.2988835624488E-02
(PID.TID 0000.0001) %MON advcfl_vvel_max              =   2.7703964131078E-02
(PID.TID 0000.0001) %MON advcfl_wvel_max              =   3.5546419839053E-02
(PID.TID 0000.0001) %MON advcfl_W_hf_max              =   4.0153419040376E-02
(PID.TID 0000.0001) %MON pe_b_mean                    =   4.3512516202249E-04
(PID.TID 0000.0001) %MON ke_max                       =   1.4740887227779E-02
(PID.TID 0000.0001) %MON ke_mean                      =   1.2645489533888E-04
(PID.TID 0000.0001) %MON ke_vol                       =   1.3226782436723E+18
(PID.TID 0000.0001) %MON vort_r_min                   =  -4.5769824206832E-07
(PID.TID 0000.0001) %MON vort_r_max                   =   4.5935297010875E-07
(PID.TID 0000.0001) %MON vort_a_mean                  =  -2.5274807256236E-05
(PID.TID 0000.0001) %MON vort_a_sd                    =   7.3604530017885E-05
(PID.TID 0000.0001) %MON vort_p_mean                  =  -3.1845655621544E-05
(PID.TID 0000.0001) %MON vort_p_sd                    =   1.3162443459641E-04
(PID.TID 0000.0001) %MON surfExpan_theta_mean         =   3.1728038367245E-08
(PID.TID 0000.0001) %MON surfExpan_salt_mean          =   9.3313231702851E-08
(PID.TID 0000.0001) // =======================================================
(PID.TID 0000.0001) // End MONITOR dynamic field statistics
(PID.TID 0000.0001) // =======================================================
 EXTERNAL_FIELDS_LOAD,        55 : iP,iLd,i0,i1=    2    3    2    3 ; Wght=  0.6666666667  0.3333333333
 EXTERNAL_FIELDS_LOAD: (fu0,1),fu,fv= -1.4435E-02 -2.7199E-02 -1.8689E-02 -1.1950E-02
 EXTERNAL_FIELDS_LOAD: SST,SSS,Q,E-P= -4.1587E-01  3.4474E+01  2.3212E+02  8.6117E-06
DEBUG_STATS_RL:          Uvel (THERMODYNAMICS)  min= -1.30373598772261E-01
DEBUG_STATS_RL:          Uvel (THERMODYNAMICS)  max=  1.64434214901611E-01
DEBUG_STATS_RL:          Uvel (THERMODYNAMICS) mean=  5.04777777777635E-03
DEBUG_STATS_RL:          Uvel (THERMODYNAMICS) S.D.=  2.18811009768957E-02
DEBUG_STATS_RL:          Vvel (THERMODYNAMICS)  min= -9.10951254080142E-02
DEBUG_STATS_RL:          Vvel (THERMODYNAMICS)  max=  1.42595219163367E-01
DEBUG_STATS_RL:          Vvel (THERMODYNAMICS) mean=  1.44713547675250E-03
DEBUG_STATS_RL:          Vvel (THERMODYNAMICS) S.D.=  1.42157008636193E-02
DEBUG_STATS_RL:          Wvel (THERMODYNAMICS)  min= -7.94621090046569E-05
DEBUG_STATS_RL:          Wvel (THERMODYNAMICS)  max=  1.50167167144146E-04
DEBUG_STATS_RL:          Wvel (THERMODYNAMICS) mean=  2.13178111736893E-08
DEBUG_STATS_RL:          Wvel (THERMODYNAMICS) S.D.=  1.07806927038164E-05
DEBUG_STATS_RL:         Theta (THERMODYNAMICS)  min= -1.97376483542846E+00
DEBUG_STATS_RL:         Theta (THERMODYNAMICS)  max=  3.04526155975673E+01
DEBUG_STATS_RL:         Theta (THERMODYNAMICS) mean=  3.22896550834431E+00
DEBUG_STATS_RL:         Theta (THERMODYNAMICS) S.D.=  5.87517816856865E+00
DEBUG_STATS_RL:          Salt (THERMODYNAMICS)  min=  9.99999999999997E-03
DEBUG_STATS_RL:          Salt (THERMODYNAMICS)  max=  3.74746755346549E+01
DEBUG_STATS_RL:          Salt (THERMODYNAMICS) mean=  1.88549034002907E+01
DEBUG_STATS_RL:          Salt (THERMODYNAMICS) S.D.=  1.73004253207039E+01
DEBUG_STATS_RL:         GtNm1 (THERMODYNAMICS)  min= -5.79928003950682E-06
DEBUG_STATS_RL:         GtNm1 (THERMODYNAMICS)  max=  3.07011381019755E-06
DEBUG_STATS_RL:         GtNm1 (THERMODYNAMICS) mean=  2.58817930806586E-09
DEBUG_STATS_RL:         GtNm1 (THERMODYNAMICS) S.D.=  1.82474292691383E-07
DEBUG_STATS_RL:         GsNm1 (THERMODYNAMICS)  min= -5.72079737342677E-07
DEBUG_STATS_RL:         GsNm1 (THERMODYNAMICS)  max=  3.73804425530913E-07
DEBUG_STATS_RL:         GsNm1 (THERMODYNAMICS) mean= -3.22293375548891E-10
DEBUG_STATS_RL:         GsNm1 (THERMODYNAMICS) S.D.=  1.83067741788255E-08
DEBUG_STATS_RL:                EtaN (DYNAMICS)  min= -1.76214053432942E+00
DEBUG_STATS_RL:                EtaN (DYNAMICS)  max=  7.51452816497737E-01
DEBUG_STATS_RL:                EtaN (DYNAMICS) mean= -1.78899670845112E-01
DEBUG_STATS_RL:                EtaN (DYNAMICS) S.D.=  6.79337726422297E-01
DEBUG_STATS_RL:                Uvel (DYNAMICS)  min= -1.30373598772261E-01
DEBUG_STATS_RL:                Uvel (DYNAMICS)  max=  1.64434214901611E-01
DEBUG_STATS_RL:                Uvel (DYNAMICS) mean=  5.04777777777635E-03
DEBUG_STATS_RL:                Uvel (DYNAMICS) S.D.=  2.18811009768957E-02
DEBUG_STATS_RL:                Vvel (DYNAMICS)  min= -9.10951254080142E-02
DEBUG_STATS_RL:                Vvel (DYNAMICS)  max=  1.42595219163367E-01
DEBUG_STATS_RL:                Vvel (DYNAMICS) mean=  1.44713547675250E-03
DEBUG_STATS_RL:                Vvel (DYNAMICS) S.D.=  1.42157008636193E-02
DEBUG_STATS_RL:                Wvel (DYNAMICS)  min= -7.94621090046569E-05
DEBUG_STATS_RL:                Wvel (DYNAMICS)  max=  1.50167167144146E-04
DEBUG_STATS_RL:                Wvel (DYNAMICS) mean=  2.13178111736893E-08
DEBUG_STATS_RL:                Wvel (DYNAMICS) S.D.=  1.07806927038164E-05
DEBUG_STATS_RL:               Theta (DYNAMICS)  min= -1.97376483542846E+00
DEBUG_STATS_RL:               Theta (DYNAMICS)  max=  3.04526155975673E+01
DEBUG_STATS_RL:               Theta (DYNAMICS) mean=  3.22896550834431E+00
DEBUG_STATS_RL:               Theta (DYNAMICS) S.D.=  5.87517816856865E+00
DEBUG_STATS_RL:                Salt (DYNAMICS)  min=  9.99999999999997E-03
DEBUG_STATS_RL:                Salt (DYNAMICS)  max=  3.74746755346549E+01
DEBUG_STATS_RL:                Salt (DYNAMICS) mean=  1.88549034002907E+01
DEBUG_STATS_RL:                Salt (DYNAMICS) S.D.=  1.73004253207039E+01
DEBUG_STATS_RL:                  Gu (DYNAMICS)  min= -1.30071864780289E-01
DEBUG_STATS_RL:                  Gu (DYNAMICS)  max=  1.61643213148295E-01
DEBUG_STATS_RL:                  Gu (DYNAMICS) mean=  5.06671669910582E-03
DEBUG_STATS_RL:                  Gu (DYNAMICS) S.D.=  2.19166597482643E-02
DEBUG_STATS_RL:                  Gv (DYNAMICS)  min= -9.35988316723537E-02
DEBUG_STATS_RL:                  Gv (DYNAMICS)  max=  1.44869122704989E-01
DEBUG_STATS_RL:                  Gv (DYNAMICS) mean=  3.78416381036028E-03
DEBUG_STATS_RL:                  Gv (DYNAMICS) S.D.=  1.58011052639275E-02
DEBUG_STATS_RL:               GuNm1 (DYNAMICS)  min= -9.65833996084146E-06
DEBUG_STATS_RL:               GuNm1 (DYNAMICS)  max=  9.22252961884922E-06
DEBUG_STATS_RL:               GuNm1 (DYNAMICS) mean=  2.20866911269511E-09
DEBUG_STATS_RL:               GuNm1 (DYNAMICS) S.D.=  1.19054010614737E-06
DEBUG_STATS_RL:               GvNm1 (DYNAMICS)  min= -9.56900653390625E-06
DEBUG_STATS_RL:               GvNm1 (DYNAMICS)  max=  1.61964030931404E-05
DEBUG_STATS_RL:               GvNm1 (DYNAMICS) mean=  7.43663510515114E-07
DEBUG_STATS_RL:               GvNm1 (DYNAMICS) S.D.=  2.63121735882416E-06
DEBUG_STATS_RL:               GtNm1 (DYNAMICS)  min= -5.79928003950682E-06
DEBUG_STATS_RL:               GtNm1 (DYNAMICS)  max=  3.07011381019755E-06
DEBUG_STATS_RL:               GtNm1 (DYNAMICS) mean=  2.58817930806586E-09
DEBUG_STATS_RL:               GtNm1 (DYNAMICS) S.D.=  1.82474292691383E-07
DEBUG_STATS_RL:               GsNm1 (DYNAMICS)  min= -5.72079737342677E-07
DEBUG_STATS_RL:               GsNm1 (DYNAMICS)  max=  3.73804425530913E-07
DEBUG_STATS_RL:               GsNm1 (DYNAMICS) mean= -3.22293375548891E-10
DEBUG_STATS_RL:               GsNm1 (DYNAMICS) S.D.=  1.83067741788255E-08
DEBUG_STATS_RL:    cg2d_b (SOLVE_FOR_PRESSURE)  min= -2.03367556995473E+04
DEBUG_STATS_RL:    cg2d_b (SOLVE_FOR_PRESSURE)  max=  2.54995885652110E+04
DEBUG_STATS_RL:    cg2d_b (SOLVE_FOR_PRESSURE) mean=  4.02552986649638E+00
DEBUG_STATS_RL:    cg2d_b (SOLVE_FOR_PRESSURE) S.D.=  3.82561018779600E+03
 cg2d: Sum(rhs),rhsMax =   3.65460862911810E-01  1.67488125021712E+00
(PID.TID 0000.0001)  cg2d: iter=     1 ; resid.=  9.83155215805432E-02
(PID.TID 0000.0001)  cg2d: iter=     2 ; resid.=  7.76659660058992E-02
(PID.TID 0000.0001)  cg2d: iter=     3 ; resid.=  7.04436826866437E-02
(PID.TID 0000.0001)  cg2d: iter=     4 ; resid.=  5.82175448170268E-02
(PID.TID 0000.0001)  cg2d: iter=     5 ; resid.=  5.55746436993016E-02
(PID.TID 0000.0001)  cg2d: iter=     6 ; resid.=  4.72955024927783E-02
(PID.TID 0000.0001)  cg2d: iter=     7 ; resid.=  4.13891944365761E-02
(PID.TID 0000.0001)  cg2d: iter=     8 ; resid.=  3.36800135726854E-02
(PID.TID 0000.0001)  cg2d: iter=     9 ; resid.=  2.57463938721275E-02
(PID.TID 0000.0001)  cg2d: iter=    10 ; resid.=  2.23814533807477E-02
(PID.TID 0000.0001)  cg2d: iter=    11 ; resid.=  2.05747150315023E-02
(PID.TID 0000.0001)  cg2d: iter=    12 ; resid.=  1.75408269422214E-02
(PID.TID 0000.0001)  cg2d: iter=    13 ; resid.=  1.41752607922682E-02
(PID.TID 0000.0001)  cg2d: iter=    14 ; resid.=  1.16338331420770E-02
(PID.TID 0000.0001)  cg2d: iter=    15 ; resid.=  8.94237579249377E-03
(PID.TID 0000.0001)  cg2d: iter=    16 ; resid.=  7.77272344716139E-03
(PID.TID 0000.0001)  cg2d: iter=    17 ; resid.=  6.81161999491493E-03
(PID.TID 0000.0001)  cg2d: iter=    18 ; resid.=  6.13713828773592E-03
(PID.TID 0000.0001)  cg2d: iter=    19 ; resid.=  5.12553014962605E-03
(PID.TID 0000.0001)  cg2d: iter=    20 ; resid.=  3.94312425506486E-03
(PID.TID 0000.0001)  cg2d: iter=    21 ; resid.=  3.12908322994228E-03
(PID.TID 0000.0001)  cg2d: iter=    22 ; resid.=  2.78027382354206E-03
(PID.TID 0000.0001)  cg2d: iter=    23 ; resid.=  2.30022384689706E-03
(PID.TID 0000.0001)  cg2d: iter=    24 ; resid.=  2.02403668716985E-03
(PID.TID 0000.0001)  cg2d: iter=    25 ; resid.=  1.78253998481844E-03
(PID.TID 0000.0001)  cg2d: iter=    26 ; resid.=  1.39036200761893E-03
(PID.TID 0000.0001)  cg2d: iter=    27 ; resid.=  1.19191064486837E-03
(PID.TID 0000.0001)  cg2d: iter=    28 ; resid.=  9.63813512865942E-04
(PID.TID 0000.0001)  cg2d: iter=    29 ; resid.=  7.72327116893897E-04
(PID.TID 0000.0001)  cg2d: iter=    30 ; resid.=  6.39705012220105E-04
(PID.TID 0000.0001)  cg2d: iter=    31 ; resid.=  5.51583578160822E-04
(PID.TID 0000.0001)  cg2d: iter=    32 ; resid.=  4.42190962062992E-04
(PID.TID 0000.0001)  cg2d: iter=    33 ; resid.=  3.55693052267074E-04
(PID.TID 0000.0001)  cg2d: iter=    34 ; resid.=  3.09841149381547E-04
(PID.TID 0000.0001)  cg2d: iter=    35 ; resid.=  2.59326491400234E-04
(PID.TID 0000.0001)  cg2d: iter=    36 ; resid.=  2.23255321947354E-04
(PID.TID 0000.0001)  cg2d: iter=    37 ; resid.=  1.84303356754064E-04
(PID.TID 0000.0001)  cg2d: iter=    38 ; resid.=  1.65973549708003E-04
(PID.TID 0000.0001)  cg2d: iter=    39 ; resid.=  1.45874911627620E-04
(PID.TID 0000.0001)  cg2d: iter=    40 ; resid.=  1.29265899267184E-04
(PID.TID 0000.0001)  cg2d: iter=    41 ; resid.=  1.15846346557063E-04
(PID.TID 0000.0001)  cg2d: iter=    42 ; resid.=  1.01108679108858E-04
(PID.TID 0000.0001)  cg2d: iter=    43 ; resid.=  8.03033492531999E-05
(PID.TID 0000.0001)  cg2d: iter=    44 ; resid.=  6.21519926059101E-05
(PID.TID 0000.0001)  cg2d: iter=    45 ; resid.=  4.56561906371394E-05
(PID.TID 0000.0001)  cg2d: iter=    46 ; resid.=  3.33098664616321E-05
(PID.TID 0000.0001)  cg2d: iter=    47 ; resid.=  2.71278025825744E-05
(PID.TID 0000.0001)  cg2d: iter=    48 ; resid.=  2.17958653099384E-05
(PID.TID 0000.0001)  cg2d: iter=    49 ; resid.=  1.79679823515203E-05
(PID.TID 0000.0001)  cg2d: iter=    50 ; resid.=  1.47976363960737E-05
(PID.TID 0000.0001)  cg2d: iter=    51 ; resid.=  1.26482884274658E-05
(PID.TID 0000.0001)  cg2d: iter=    52 ; resid.=  1.10890413046948E-05
(PID.TID 0000.0001)  cg2d: iter=    53 ; resid.=  9.18778367460795E-06
(PID.TID 0000.0001)  cg2d: iter=    54 ; resid.=  7.55589408671663E-06
(PID.TID 0000.0001)  cg2d: iter=    55 ; resid.=  6.57047432292136E-06
(PID.TID 0000.0001)  cg2d: iter=    56 ; resid.=  5.90429894583476E-06
(PID.TID 0000.0001)  cg2d: iter=    57 ; resid.=  5.04959906698618E-06
(PID.TID 0000.0001)  cg2d: iter=    58 ; resid.=  4.03531834198415E-06
(PID.TID 0000.0001)  cg2d: iter=    59 ; resid.=  3.19217861243984E-06
(PID.TID 0000.0001)  cg2d: iter=    60 ; resid.=  2.37728602682098E-06
(PID.TID 0000.0001)  cg2d: iter=    61 ; resid.=  1.81878552200514E-06
(PID.TID 0000.0001)  cg2d: iter=    62 ; resid.=  1.58643930434111E-06
(PID.TID 0000.0001)  cg2d: iter=    63 ; resid.=  1.28616714304476E-06
(PID.TID 0000.0001)  cg2d: iter=    64 ; resid.=  1.07927930886479E-06
(PID.TID 0000.0001)  cg2d: iter=    65 ; resid.=  8.55096677164975E-07
(PID.TID 0000.0001)  cg2d: iter=    66 ; resid.=  6.92044803153338E-07
(PID.TID 0000.0001)  cg2d: iter=    67 ; resid.=  6.25236705537673E-07
(PID.TID 0000.0001)  cg2d: iter=    68 ; resid.=  5.05699933308765E-07
(PID.TID 0000.0001)  cg2d: iter=    69 ; resid.=  4.30426431910968E-07
(PID.TID 0000.0001)  cg2d: iter=    70 ; resid.=  3.72148308225918E-07
(PID.TID 0000.0001)  cg2d: iter=    71 ; resid.=  3.22724898739598E-07
(PID.TID 0000.0001)  cg2d: iter=    72 ; resid.=  2.57621448928166E-07
(PID.TID 0000.0001)  cg2d: iter=    73 ; resid.=  2.14611346845713E-07
(PID.TID 0000.0001)  cg2d: iter=    74 ; resid.=  1.68430040443484E-07
(PID.TID 0000.0001)  cg2d: iter=    75 ; resid.=  1.33718901687069E-07
(PID.TID 0000.0001)  cg2d: iter=    76 ; resid.=  1.12843820669274E-07
(PID.TID 0000.0001)  cg2d: iter=    77 ; resid.=  9.77484318723508E-08
(PID.TID 0000.0001)  cg2d: iter=    78 ; resid.=  8.58985971615675E-08
(PID.TID 0000.0001)  cg2d: iter=    79 ; resid.=  6.86812145798704E-08
(PID.TID 0000.0001)  cg2d: iter=    80 ; resid.=  5.12729482503207E-08
(PID.TID 0000.0001)  cg2d: iter=    81 ; resid.=  4.06148066850393E-08
(PID.TID 0000.0001)  cg2d: iter=    82 ; resid.=  3.10803699068739E-08
(PID.TID 0000.0001)  cg2d: iter=    83 ; resid.=  2.35624954372843E-08
(PID.TID 0000.0001)  cg2d: iter=    84 ; resid.=  1.63905624151144E-08
(PID.TID 0000.0001)  cg2d: iter=    85 ; resid.=  1.14932672189296E-08
(PID.TID 0000.0001)  cg2d: iter=    86 ; resid.=  8.71761626249163E-09
(PID.TID 0000.0001)  cg2d: iter=    87 ; resid.=  6.97158226769611E-09
(PID.TID 0000.0001)  cg2d: iter=    88 ; resid.=  5.31673175584670E-09
(PID.TID 0000.0001)  cg2d: iter=    89 ; resid.=  4.24233309933502E-09
(PID.TID 0000.0001)  cg2d: iter=    90 ; resid.=  3.54299272731446E-09
(PID.TID 0000.0001)  cg2d: iter=    91 ; resid.=  2.70441570791926E-09
(PID.TID 0000.0001)  cg2d: iter=    92 ; resid.=  1.91537909032373E-09
(PID.TID 0000.0001)  cg2d: iter=    93 ; resid.=  1.45507964225135E-09
(PID.TID 0000.0001)  cg2d: iter=    94 ; resid.=  1.20855019064675E-09
(PID.TID 0000.0001)  cg2d: iter=    95 ; resid.=  1.05441117216935E-09
(PID.TID 0000.0001)  cg2d: iter=    96 ; resid.=  8.40809369988286E-10
(PID.TID 0000.0001)  cg2d: iter=    97 ; resid.=  6.36512961500840E-10
(PID.TID 0000.0001)  cg2d: iter=    98 ; resid.=  5.52326040802266E-10
(PID.TID 0000.0001)  cg2d: iter=    99 ; resid.=  4.53846423303196E-10
(PID.TID 0000.0001)  cg2d: iter=   100 ; resid.=  4.14015374101098E-10
(PID.TID 0000.0001)  cg2d: iter=   101 ; resid.=  3.33364932787933E-10
(PID.TID 0000.0001)  cg2d: iter=   102 ; resid.=  2.64131541877357E-10
(PID.TID 0000.0001)  cg2d: iter=   103 ; resid.=  2.11345730890025E-10
(PID.TID 0000.0001)  cg2d: iter=   104 ; resid.=  1.65875383180367E-10
(PID.TID 0000.0001)  cg2d: iter=   105 ; resid.=  1.33724480138063E-10
(PID.TID 0000.0001)  cg2d: iter=   106 ; resid.=  1.13874960782284E-10
(PID.TID 0000.0001)  cg2d: iter=   107 ; resid.=  8.85120286377051E-11
(PID.TID 0000.0001)  cg2d: iter=   108 ; resid.=  6.98270254372160E-11
(PID.TID 0000.0001)  cg2d: iter=   109 ; resid.=  5.28541342514178E-11
(PID.TID 0000.0001)  cg2d: iter=   110 ; resid.=  4.36095219036284E-11
(PID.TID 0000.0001)  cg2d: iter=   111 ; resid.=  3.32878653537092E-11
(PID.TID 0000.0001)  cg2d: iter=   112 ; resid.=  2.41861413948789E-11
(PID.TID 0000.0001)  cg2d: iter=   113 ; resid.=  1.68833233117270E-11
(PID.TID 0000.0001)  cg2d: iter=   114 ; resid.=  1.26254257261776E-11
(PID.TID 0000.0001)  cg2d: iter=   115 ; resid.=  9.47402809467433E-12
(PID.TID 0000.0001)  cg2d: iter=   116 ; resid.=  7.21707280095663E-12
(PID.TID 0000.0001)  cg2d: iter=   117 ; resid.=  5.87215371098494E-12
(PID.TID 0000.0001)  cg2d: iter=   118 ; resid.=  5.15360989867263E-12
(PID.TID 0000.0001)  cg2d: iter=   119 ; resid.=  4.10764511960808E-12
(PID.TID 0000.0001)  cg2d: iter=   120 ; resid.=  2.94712373595028E-12
(PID.TID 0000.0001)  cg2d: iter=   121 ; resid.=  2.26788872098603E-12
(PID.TID 0000.0001)  cg2d: iter=   122 ; resid.=  1.79117703418630E-12
(PID.TID 0000.0001)  cg2d: iter=   123 ; resid.=  1.56492533482611E-12
(PID.TID 0000.0001)  cg2d: iter=   124 ; resid.=  1.18157256898257E-12
(PID.TID 0000.0001)  cg2d: iter=   125 ; resid.=  8.31975624075885E-13
(PID.TID 0000.0001)  cg2d: iter=   126 ; resid.=  5.54721001842289E-13
(PID.TID 0000.0001)  cg2d: iter=   127 ; resid.=  3.93222124965663E-13
(PID.TID 0000.0001)  cg2d: iter=   128 ; resid.=  2.83958980191646E-13
(PID.TID 0000.0001)  cg2d: iter=   129 ; resid.=  1.95291098574221E-13
(PID.TID 0000.0001)  cg2d: iter=   130 ; resid.=  1.50729993555225E-13
(PID.TID 0000.0001)  cg2d: iter=   131 ; resid.=  1.07970912668717E-13
(PID.TID 0000.0001)  cg2d: iter=   132 ; resid.=  7.54475008046355E-14
DEBUG_STATS_RL:    cg2d_x (SOLVE_FOR_PRESSURE)  min= -1.73070928308578E+01
DEBUG_STATS_RL:    cg2d_x (SOLVE_FOR_PRESSURE)  max=  7.38374168794299E+00
DEBUG_STATS_RL:    cg2d_x (SOLVE_FOR_PRESSURE) mean= -1.75154368226886E+00
DEBUG_STATS_RL:    cg2d_x (SOLVE_FOR_PRESSURE) S.D.=  6.66521565128746E+00
(PID.TID 0000.0001)      cg2d_init_res =   2.83054074180288E-01
(PID.TID 0000.0001)      cg2d_iters(min,last) =      -1     132
(PID.TID 0000.0001)      cg2d_last_res =   7.54475008046355E-14
(PID.TID 0000.0001) // =======================================================
(PID.TID 0000.0001) // Begin MONITOR dynamic field statistics
(PID.TID 0000.0001) // =======================================================
(PID.TID 0000.0001) %MON time_tsnumber                =                    56
(PID.TID 0000.0001) %MON time_secondsf                =   4.8384000000000E+06
(PID.TID 0000.0001) %MON dynstat_eta_max              =   7.5267499367408E-01
(PID.TID 0000.0001) %MON dynstat_eta_min              =  -1.7642296463667E+00
(PID.TID 0000.0001) %MON dynstat_eta_mean             =  -4.2001412664633E-03
(PID.TID 0000.0001) %MON dynstat_eta_sd               =   5.8242023973998E-01
(PID.TID 0000.0001) %MON dynstat_eta_del2             =   2.3398212206660E-03
(PID.TID 0000.0001) %MON dynstat_uvel_max             =   1.5608544472489E-01
(PID.TID 0000.0001) %MON dynstat_uvel_min             =  -1.3006999262906E-01
(PID.TID 0000.0001) %MON dynstat_uvel_mean            =   1.8135737345595E-03
(PID.TID 0000.0001) %MON dynstat_uvel_sd              =   1.3943160396119E-02
(PID.TID 0000.0001) %MON dynstat_uvel_del2            =   8.5542320443274E-05
(PID.TID 0000.0001) %MON dynstat_vvel_max             =   1.4284120822251E-01
(PID.TID 0000.0001) %MON dynstat_vvel_min             =  -9.2282688815946E-02
(PID.TID 0000.0001) %MON dynstat_vvel_mean            =   6.8004161049202E-05
(PID.TID 0000.0001) %MON dynstat_vvel_sd              =   8.7983980884581E-03
(PID.TID 0000.0001) %MON dynstat_vvel_del2            =   7.3674836456402E-05
(PID.TID 0000.0001) %MON dynstat_wvel_max             =   1.4211508557159E-04
(PID.TID 0000.0001) %MON dynstat_wvel_min             =  -7.3185365951833E-05
(PID.TID 0000.0001) %MON dynstat_wvel_mean            =   2.1946047814717E-22
(PID.TID 0000.0001) %MON dynstat_wvel_sd              =   1.2091491510364E-05
(PID.TID 0000.0001) %MON dynstat_wvel_del2            =   1.2509679825547E-07
(PID.TID 0000.0001) %MON dynstat_theta_max            =   3.0452615597567E+01
(PID.TID 0000.0001) %MON dynstat_theta_min            =  -1.9737648354285E+00
(PID.TID 0000.0001) %MON dynstat_theta_mean           =   3.6330043544946E+00
(PID.TID 0000.0001) %MON dynstat_theta_sd             =   4.4228119900014E+00
(PID.TID 0000.0001) %MON dynstat_theta_del2           =   4.8556050809410E-03
(PID.TID 0000.0001) %MON dynstat_salt_max             =   3.7474675534655E+01
(PID.TID 0000.0001) %MON dynstat_salt_min             =   2.9870867615111E+01
(PID.TID 0000.0001) %MON dynstat_salt_mean            =   3.4727982389970E+01
(PID.TID 0000.0001) %MON dynstat_salt_sd              =   2.9640863113298E-01
(PID.TID 0000.0001) %MON dynstat_salt_del2            =   9.8949431947991E-04
(PID.TID 0000.0001) %MON dynstat_sst_max              =   3.0452615597567E+01
(PID.TID 0000.0001) %MON dynstat_sst_min              =  -1.9737648354285E+00
(PID.TID 0000.0001) %MON dynstat_sst_mean             =   1.8976581560768E+01
(PID.TID 0000.0001) %MON dynstat_sst_sd               =   9.0458449129369E+00
(PID.TID 0000.0001) %MON dynstat_sst_del2             =   2.7785797476352E-02
(PID.TID 0000.0001) %MON dynstat_sss_max              =   3.7452670179747E+01
(PID.TID 0000.0001) %MON dynstat_sss_min              =   2.9870867615111E+01
(PID.TID 0000.0001) %MON dynstat_sss_mean             =   3.4851908659348E+01
(PID.TID 0000.0001) %MON dynstat_sss_sd               =   9.7941479222405E-01
(PID.TID 0000.0001) %MON dynstat_sss_del2             =   7.9652063050191E-03
(PID.TID 0000.0001) %MON forcing_qnet_max             =   3.3047072347005E+02
(PID.TID 0000.0001) %MON forcing_qnet_min             =  -1.6984117635091E+02
(PID.TID 0000.0001) %MON forcing_qnet_mean            =  -1.1731855982677E+01
(PID.TID 0000.0001) %MON forcing_qnet_sd              =   6.5966939273954E+01
(PID.TID 0000.0001) %MON forcing_qnet_del2            =   8.9973155248247E-01
(PID.TID 0000.0001) %MON forcing_qsw_max              =   0.0000000000000E+00
(PID.TID 0000.0001) %MON forcing_qsw_min              =   0.0000000000000E+00
(PID.TID 0000.0001) %MON forcing_qsw_mean             =   0.0000000000000E+00
(PID.TID 0000.0001) %MON forcing_qsw_sd               =   0.0000000000000E+00
(PID.TID 0000.0001) %MON forcing_qsw_del2             =   0.0000000000000E+00
(PID.TID 0000.0001) %MON forcing_empmr_max            =   6.9223948647353E-05
(PID.TID 0000.0001) %MON forcing_empmr_min            =  -7.5280825721317E-05
(PID.TID 0000.0001) %MON forcing_empmr_mean           =   8.1250967116582E-07
(PID.TID 0000.0001) %MON forcing_empmr_sd             =   2.7185457124815E-05
(PID.TID 0000.0001) %MON forcing_empmr_del2           =   3.5320365580887E-07
(PID.TID 0000.0001) %MON forcing_fu_max               =   3.1872308254242E-01
(PID.TID 0000.0001) %MON forcing_fu_min               =  -2.6957864562670E-01
(PID.TID 0000.0001) %MON forcing_fu_mean              =   1.8572737511220E-02
(PID.TID 0000.0001) %MON forcing_fu_sd                =   9.4029223939401E-02
(PID.TID 0000.0001) %MON forcing_fu_del2              =   7.0568353900108E-04
(PID.TID 0000.0001) %MON forcing_fv_max               =   1.5834051370621E-01
(PID.TID 0000.0001) %MON forcing_fv_min               =  -1.8481889367104E-01
(PID.TID 0000.0001) %MON forcing_fv_mean              =  -7.3210084406550E-03
(PID.TID 0000.0001) %MON forcing_fv_sd                =   4.2536292965649E-02
(PID.TID 0000.0001) %MON forcing_fv_del2              =   4.8118856330786E-04
(PID.TID 0000.0001) %MON trAdv_CFL_u_max              =   4.2997566964465E-02
(PID.TID 0000.0001) %MON trAdv_CFL_v_max              =   2.7522193925974E-02
(PID.TID 0000.0001) %MON trAdv_CFL_w_max              =   3.3267803182703E-02
(PID.TID 0000.0001) %MON advcfl_uvel_max              =   4.0806176078793E-02
(PID.TID 0000.0001) %MON advcfl_vvel_max              =   2.7751755860079E-02
(PID.TID 0000.0001) %MON advcfl_wvel_max              =   3.3640392858591E-02
(PID.TID 0000.0001) %MON advcfl_W_hf_max              =   3.7569747273283E-02
(PID.TID 0000.0001) %MON pe_b_mean                    =   4.3408692334367E-04
(PID.TID 0000.0001) %MON ke_max                       =   1.4691140402101E-02
(PID.TID 0000.0001) %MON ke_mean                      =   1.2457408304628E-04
(PID.TID 0000.0001) %MON ke_vol                       =   1.3226782436723E+18
(PID.TID 0000.0001) %MON vort_r_min                   =  -4.4691039400331E-07
(PID.TID 0000.0001) %MON vort_r_max                   =   4.5643027867053E-07
(PID.TID 0000.0001) %MON vort_a_mean                  =  -2.5274807304416E-05
(PID.TID 0000.0001) %MON vort_a_sd                    =   7.3604543140907E-05
(PID.TID 0000.0001) %MON vort_p_mean                  =  -3.1845655682250E-05
(PID.TID 0000.0001) %MON vort_p_sd                    =   1.3162447166274E-04
(PID.TID 0000.0001) %MON surfExpan_theta_mean         =   4.1046289788232E-08
(PID.TID 0000.0001) %MON surfExpan_salt_mean          =   7.8851872306561E-08
(PID.TID 0000.0001) // =======================================================
(PID.TID 0000.0001) // End MONITOR dynamic field statistics
(PID.TID 0000.0001) // =======================================================
 EXTERNAL_FIELDS_LOAD,        56 : iP,iLd,i0,i1=    2    3    2    3 ; Wght=  0.6333333333  0.3666666667
 EXTERNAL_FIELDS_LOAD: (fu0,1),fu,fv= -1.4435E-02 -2.7199E-02 -1.9115E-02 -1.1381E-02
 EXTERNAL_FIELDS_LOAD: SST,SSS,Q,E-P= -4.0427E-01  3.4479E+01  2.3128E+02  8.6352E-06
DEBUG_STATS_RL:          Uvel (THERMODYNAMICS)  min= -1.30069992629065E-01
DEBUG_STATS_RL:          Uvel (THERMODYNAMICS)  max=  1.56085444724885E-01
DEBUG_STATS_RL:          Uvel (THERMODYNAMICS) mean=  5.13845085268676E-03
DEBUG_STATS_RL:          Uvel (THERMODYNAMICS) S.D.=  2.15925229055234E-02
DEBUG_STATS_RL:          Vvel (THERMODYNAMICS)  min= -9.22826888159464E-02
DEBUG_STATS_RL:          Vvel (THERMODYNAMICS)  max=  1.42841208222511E-01
DEBUG_STATS_RL:          Vvel (THERMODYNAMICS) mean=  1.35715573512681E-03
DEBUG_STATS_RL:          Vvel (THERMODYNAMICS) S.D.=  1.41712332446769E-02
DEBUG_STATS_RL:          Wvel (THERMODYNAMICS)  min= -7.31853659518327E-05
DEBUG_STATS_RL:          Wvel (THERMODYNAMICS)  max=  1.42115085571593E-04
DEBUG_STATS_RL:          Wvel (THERMODYNAMICS) mean=  3.21708881143837E-09
DEBUG_STATS_RL:          Wvel (THERMODYNAMICS) S.D.=  1.06586478343861E-05
DEBUG_STATS_RL:         Theta (THERMODYNAMICS)  min= -1.97213848882837E+00
DEBUG_STATS_RL:         Theta (THERMODYNAMICS)  max=  3.04775774745146E+01
DEBUG_STATS_RL:         Theta (THERMODYNAMICS) mean=  3.22906827475093E+00
DEBUG_STATS_RL:         Theta (THERMODYNAMICS) S.D.=  5.87570357597824E+00
DEBUG_STATS_RL:          Salt (THERMODYNAMICS)  min=  9.99999999999997E-03
DEBUG_STATS_RL:          Salt (THERMODYNAMICS)  max=  3.74752631703432E+01
DEBUG_STATS_RL:          Salt (THERMODYNAMICS) mean=  1.88548883811333E+01
DEBUG_STATS_RL:          Salt (THERMODYNAMICS) S.D.=  1.73004119231472E+01
DEBUG_STATS_RL:         GtNm1 (THERMODYNAMICS)  min= -5.85763139387910E-06
DEBUG_STATS_RL:         GtNm1 (THERMODYNAMICS)  max=  3.11717210553833E-06
DEBUG_STATS_RL:         GtNm1 (THERMODYNAMICS) mean=  2.46650385770769E-09
DEBUG_STATS_RL:         GtNm1 (THERMODYNAMICS) S.D.=  1.80991721838557E-07
DEBUG_STATS_RL:         GsNm1 (THERMODYNAMICS)  min= -6.01796522903993E-07
DEBUG_STATS_RL:         GsNm1 (THERMODYNAMICS)  max=  4.33712852062642E-07
DEBUG_STATS_RL:         GsNm1 (THERMODYNAMICS) mean= -3.70550978857829E-10
DEBUG_STATS_RL:         GsNm1 (THERMODYNAMICS) S.D.=  1.83371774962773E-08
DEBUG_STATS_RL:                EtaN (DYNAMICS)  min= -1.76422964636671E+00
DEBUG_STATS_RL:                EtaN (DYNAMICS)  max=  7.52674993674077E-01
DEBUG_STATS_RL:                EtaN (DYNAMICS) mean= -1.78546756602331E-01
DEBUG_STATS_RL:                EtaN (DYNAMICS) S.D.=  6.79430749366720E-01
DEBUG_STATS_RL:                Uvel (DYNAMICS)  min= -1.30069992629065E-01
DEBUG_STATS_RL:                Uvel (DYNAMICS)  max=  1.56085444724885E-01
DEBUG_STATS_RL:                Uvel (DYNAMICS) mean=  5.13845085268676E-03
DEBUG_STATS_RL:                Uvel (DYNAMICS) S.D.=  2.15925229055234E-02
DEBUG_STATS_RL:                Vvel (DYNAMICS)  min= -9.22826888159464E-02
DEBUG_STATS_RL:                Vvel (DYNAMICS)  max=  1.42841208222511E-01
DEBUG_STATS_RL:                Vvel (DYNAMICS) mean=  1.35715573512681E-03
DEBUG_STATS_RL:                Vvel (DYNAMICS) S.D.=  1.41712332446769E-02
DEBUG_STATS_RL:                Wvel (DYNAMICS)  min= -7.31853659518327E-05
DEBUG_STATS_RL:                Wvel (DYNAMICS)  max=  1.42115085571593E-04
DEBUG_STATS_RL:                Wvel (DYNAMICS) mean=  3.21708881143837E-09
DEBUG_STATS_RL:                Wvel (DYNAMICS) S.D.=  1.06586478343861E-05
DEBUG_STATS_RL:               Theta (DYNAMICS)  min= -1.97213848882837E+00
DEBUG_STATS_RL:               Theta (DYNAMICS)  max=  3.04775774745146E+01
DEBUG_STATS_RL:               Theta (DYNAMICS) mean=  3.22906827475093E+00
DEBUG_STATS_RL:               Theta (DYNAMICS) S.D.=  5.87570357597824E+00
DEBUG_STATS_RL:                Salt (DYNAMICS)  min=  9.99999999999997E-03
DEBUG_STATS_RL:                Salt (DYNAMICS)  max=  3.74752631703432E+01
DEBUG_STATS_RL:                Salt (DYNAMICS) mean=  1.88548883811333E+01
DEBUG_STATS_RL:                Salt (DYNAMICS) S.D.=  1.73004119231472E+01
DEBUG_STATS_RL:                  Gu (DYNAMICS)  min= -1.29743336022060E-01
DEBUG_STATS_RL:                  Gu (DYNAMICS)  max=  1.52583682946006E-01
DEBUG_STATS_RL:                  Gu (DYNAMICS) mean=  5.15528559151421E-03
DEBUG_STATS_RL:                  Gu (DYNAMICS) S.D.=  2.16718176294934E-02
DEBUG_STATS_RL:                  Gv (DYNAMICS)  min= -9.58553430229580E-02
DEBUG_STATS_RL:                  Gv (DYNAMICS)  max=  1.44879415407316E-01
DEBUG_STATS_RL:                  Gv (DYNAMICS) mean=  3.70904651504338E-03
DEBUG_STATS_RL:                  Gv (DYNAMICS) S.D.=  1.57292251943035E-02
DEBUG_STATS_RL:               GuNm1 (DYNAMICS)  min= -9.68667887422207E-06
DEBUG_STATS_RL:               GuNm1 (DYNAMICS)  max=  9.26162003907005E-06
DEBUG_STATS_RL:               GuNm1 (DYNAMICS) mean=  2.90794180319532E-09
DEBUG_STATS_RL:               GuNm1 (DYNAMICS) S.D.=  1.19187470440073E-06
DEBUG_STATS_RL:               GvNm1 (DYNAMICS)  min= -9.63102719935272E-06
DEBUG_STATS_RL:               GvNm1 (DYNAMICS)  max=  1.61368322370742E-05
DEBUG_STATS_RL:               GvNm1 (DYNAMICS) mean=  7.43239660557762E-07
DEBUG_STATS_RL:               GvNm1 (DYNAMICS) S.D.=  2.63505207926517E-06
DEBUG_STATS_RL:               GtNm1 (DYNAMICS)  min= -5.85763139387910E-06
DEBUG_STATS_RL:               GtNm1 (DYNAMICS)  max=  3.11717210553833E-06
DEBUG_STATS_RL:               GtNm1 (DYNAMICS) mean=  2.46650385770769E-09
DEBUG_STATS_RL:               GtNm1 (DYNAMICS) S.D.=  1.80991721838557E-07
DEBUG_STATS_RL:               GsNm1 (DYNAMICS)  min= -6.01796522903993E-07
DEBUG_STATS_RL:               GsNm1 (DYNAMICS)  max=  4.33712852062642E-07
DEBUG_STATS_RL:               GsNm1 (DYNAMICS) mean= -3.70550978857829E-10
DEBUG_STATS_RL:               GsNm1 (DYNAMICS) S.D.=  1.83371774962773E-08
DEBUG_STATS_RL:    cg2d_b (SOLVE_FOR_PRESSURE)  min= -2.02968463840248E+04
DEBUG_STATS_RL:    cg2d_b (SOLVE_FOR_PRESSURE)  max=  2.55946342893874E+04
DEBUG_STATS_RL:    cg2d_b (SOLVE_FOR_PRESSURE) mean=  4.08948971353320E+00
DEBUG_STATS_RL:    cg2d_b (SOLVE_FOR_PRESSURE) S.D.=  3.84273273507727E+03
 cg2d: Sum(rhs),rhsMax =   3.69888804809192E-01  1.68112410785889E+00
(PID.TID 0000.0001)  cg2d: iter=     1 ; resid.=  9.37596921287474E-02
(PID.TID 0000.0001)  cg2d: iter=     2 ; resid.=  7.15093993962381E-02
(PID.TID 0000.0001)  cg2d: iter=     3 ; resid.=  6.24408725488477E-02
(PID.TID 0000.0001)  cg2d: iter=     4 ; resid.=  5.14168810975287E-02
(PID.TID 0000.0001)  cg2d: iter=     5 ; resid.=  4.70385171071873E-02
(PID.TID 0000.0001)  cg2d: iter=     6 ; resid.=  3.81773133513336E-02
(PID.TID 0000.0001)  cg2d: iter=     7 ; resid.=  3.35578807535942E-02
(PID.TID 0000.0001)  cg2d: iter=     8 ; resid.=  2.83185115078308E-02
(PID.TID 0000.0001)  cg2d: iter=     9 ; resid.=  2.21760989401070E-02
(PID.TID 0000.0001)  cg2d: iter=    10 ; resid.=  1.97836082438217E-02
(PID.TID 0000.0001)  cg2d: iter=    11 ; resid.=  1.83939257659985E-02
(PID.TID 0000.0001)  cg2d: iter=    12 ; resid.=  1.56936186246795E-02
(PID.TID 0000.0001)  cg2d: iter=    13 ; resid.=  1.25840254274145E-02
(PID.TID 0000.0001)  cg2d: iter=    14 ; resid.=  1.02804308912392E-02
(PID.TID 0000.0001)  cg2d: iter=    15 ; resid.=  8.08236165578408E-03
(PID.TID 0000.0001)  cg2d: iter=    16 ; resid.=  7.10365404193874E-03
(PID.TID 0000.0001)  cg2d: iter=    17 ; resid.=  6.18288656218669E-03
(PID.TID 0000.0001)  cg2d: iter=    18 ; resid.=  5.51825344827124E-03
(PID.TID 0000.0001)  cg2d: iter=    19 ; resid.=  4.57507665982071E-03
(PID.TID 0000.0001)  cg2d: iter=    20 ; resid.=  3.56803061465860E-03
(PID.TID 0000.0001)  cg2d: iter=    21 ; resid.=  2.88829350199161E-03
(PID.TID 0000.0001)  cg2d: iter=    22 ; resid.=  2.57496049189237E-03
(PID.TID 0000.0001)  cg2d: iter=    23 ; resid.=  2.13330504941703E-03
(PID.TID 0000.0001)  cg2d: iter=    24 ; resid.=  1.85897743356955E-03
(PID.TID 0000.0001)  cg2d: iter=    25 ; resid.=  1.58991166825649E-03
(PID.TID 0000.0001)  cg2d: iter=    26 ; resid.=  1.24263032183435E-03
(PID.TID 0000.0001)  cg2d: iter=    27 ; resid.=  1.07671546883517E-03
(PID.TID 0000.0001)  cg2d: iter=    28 ; resid.=  8.91587361273363E-04
(PID.TID 0000.0001)  cg2d: iter=    29 ; resid.=  7.44151022751324E-04
(PID.TID 0000.0001)  cg2d: iter=    30 ; resid.=  6.12043780567828E-04
(PID.TID 0000.0001)  cg2d: iter=    31 ; resid.=  5.24962454919629E-04
(PID.TID 0000.0001)  cg2d: iter=    32 ; resid.=  4.17159659382349E-04
(PID.TID 0000.0001)  cg2d: iter=    33 ; resid.=  3.33576934751584E-04
(PID.TID 0000.0001)  cg2d: iter=    34 ; resid.=  2.95514854926755E-04
(PID.TID 0000.0001)  cg2d: iter=    35 ; resid.=  2.46946968485101E-04
(PID.TID 0000.0001)  cg2d: iter=    36 ; resid.=  2.10747678556748E-04
(PID.TID 0000.0001)  cg2d: iter=    37 ; resid.=  1.70403461399145E-04
(PID.TID 0000.0001)  cg2d: iter=    38 ; resid.=  1.47602328544048E-04
(PID.TID 0000.0001)  cg2d: iter=    39 ; resid.=  1.27663807653538E-04
(PID.TID 0000.0001)  cg2d: iter=    40 ; resid.=  1.14389851498709E-04
(PID.TID 0000.0001)  cg2d: iter=    41 ; resid.=  1.04069925973352E-04
(PID.TID 0000.0001)  cg2d: iter=    42 ; resid.=  9.30071641339918E-05
(PID.TID 0000.0001)  cg2d: iter=    43 ; resid.=  7.48494773663696E-05
(PID.TID 0000.0001)  cg2d: iter=    44 ; resid.=  5.73692452117238E-05
(PID.TID 0000.0001)  cg2d: iter=    45 ; resid.=  4.17972394204087E-05
(PID.TID 0000.0001)  cg2d: iter=    46 ; resid.=  3.01121943401552E-05
(PID.TID 0000.0001)  cg2d: iter=    47 ; resid.=  2.37050039768735E-05
(PID.TID 0000.0001)  cg2d: iter=    48 ; resid.=  1.89294657909683E-05
(PID.TID 0000.0001)  cg2d: iter=    49 ; resid.=  1.52605508663506E-05
(PID.TID 0000.0001)  cg2d: iter=    50 ; resid.=  1.19752767029444E-05
(PID.TID 0000.0001)  cg2d: iter=    51 ; resid.=  9.73852101956767E-06
(PID.TID 0000.0001)  cg2d: iter=    52 ; resid.=  8.15940907904622E-06
(PID.TID 0000.0001)  cg2d: iter=    53 ; resid.=  6.84418828927641E-06
(PID.TID 0000.0001)  cg2d: iter=    54 ; resid.=  5.74829709715168E-06
(PID.TID 0000.0001)  cg2d: iter=    55 ; resid.=  5.04840079046027E-06
(PID.TID 0000.0001)  cg2d: iter=    56 ; resid.=  4.69406279336719E-06
(PID.TID 0000.0001)  cg2d: iter=    57 ; resid.=  4.16804293455553E-06
(PID.TID 0000.0001)  cg2d: iter=    58 ; resid.=  3.39564121999552E-06
(PID.TID 0000.0001)  cg2d: iter=    59 ; resid.=  2.71086969306465E-06
(PID.TID 0000.0001)  cg2d: iter=    60 ; resid.=  2.04939675364447E-06
(PID.TID 0000.0001)  cg2d: iter=    61 ; resid.=  1.57748367379825E-06
(PID.TID 0000.0001)  cg2d: iter=    62 ; resid.=  1.36694659905303E-06
(PID.TID 0000.0001)  cg2d: iter=    63 ; resid.=  1.08902922616453E-06
(PID.TID 0000.0001)  cg2d: iter=    64 ; resid.=  9.00813506987314E-07
(PID.TID 0000.0001)  cg2d: iter=    65 ; resid.=  7.10212107723230E-07
(PID.TID 0000.0001)  cg2d: iter=    66 ; resid.=  5.66251207784443E-07
(PID.TID 0000.0001)  cg2d: iter=    67 ; resid.=  5.05197473289597E-07
(PID.TID 0000.0001)  cg2d: iter=    68 ; resid.=  4.11182294100200E-07
(PID.TID 0000.0001)  cg2d: iter=    69 ; resid.=  3.48712995389375E-07
(PID.TID 0000.0001)  cg2d: iter=    70 ; resid.=  2.91964672898536E-07
(PID.TID 0000.0001)  cg2d: iter=    71 ; resid.=  2.53977436813394E-07
(PID.TID 0000.0001)  cg2d: iter=    72 ; resid.=  2.08660983706918E-07
(PID.TID 0000.0001)  cg2d: iter=    73 ; resid.=  1.76288894769453E-07
(PID.TID 0000.0001)  cg2d: iter=    74 ; resid.=  1.38588536077386E-07
(PID.TID 0000.0001)  cg2d: iter=    75 ; resid.=  1.08828243830689E-07
(PID.TID 0000.0001)  cg2d: iter=    76 ; resid.=  9.00520333448165E-08
(PID.TID 0000.0001)  cg2d: iter=    77 ; resid.=  7.67680667920082E-08
(PID.TID 0000.0001)  cg2d: iter=    78 ; resid.=  6.94823381749717E-08
(PID.TID 0000.0001)  cg2d: iter=    79 ; resid.=  5.75459166396617E-08
(PID.TID 0000.0001)  cg2d: iter=    80 ; resid.=  4.49973410764280E-08
(PID.TID 0000.0001)  cg2d: iter=    81 ; resid.=  3.62908186775133E-08
(PID.TID 0000.0001)  cg2d: iter=    82 ; resid.=  2.83630935892745E-08
(PID.TID 0000.0001)  cg2d: iter=    83 ; resid.=  2.19179335342051E-08
(PID.TID 0000.0001)  cg2d: iter=    84 ; resid.=  1.53452318144524E-08
(PID.TID 0000.0001)  cg2d: iter=    85 ; resid.=  1.05600783342615E-08
(PID.TID 0000.0001)  cg2d: iter=    86 ; resid.=  7.97758303282198E-09
(PID.TID 0000.0001)  cg2d: iter=    87 ; resid.=  6.28456397614710E-09
(PID.TID 0000.0001)  cg2d: iter=    88 ; resid.=  4.76025457510055E-09
(PID.TID 0000.0001)  cg2d: iter=    89 ; resid.=  3.66491096419498E-09
(PID.TID 0000.0001)  cg2d: iter=    90 ; resid.=  3.07905292016361E-09
(PID.TID 0000.0001)  cg2d: iter=    91 ; resid.=  2.38526892306025E-09
(PID.TID 0000.0001)  cg2d: iter=    92 ; resid.=  1.66199796821306E-09
(PID.TID 0000.0001)  cg2d: iter=    93 ; resid.=  1.22338633758220E-09
(PID.TID 0000.0001)  cg2d: iter=    94 ; resid.=  9.75845749545489E-10
(PID.TID 0000.0001)  cg2d: iter=    95 ; resid.=  8.46718636948380E-10
(PID.TID 0000.0001)  cg2d: iter=    96 ; resid.=  6.95636185015211E-10
(PID.TID 0000.0001)  cg2d: iter=    97 ; resid.=  5.09208269137468E-10
(PID.TID 0000.0001)  cg2d: iter=    98 ; resid.=  4.33496508463187E-10
(PID.TID 0000.0001)  cg2d: iter=    99 ; resid.=  3.55831675559052E-10
(PID.TID 0000.0001)  cg2d: iter=   100 ; resid.=  3.25954364914180E-10
(PID.TID 0000.0001)  cg2d: iter=   101 ; resid.=  2.72871351514615E-10
(PID.TID 0000.0001)  cg2d: iter=   102 ; resid.=  2.20428208772173E-10
(PID.TID 0000.0001)  cg2d: iter=   103 ; resid.=  1.81839587875336E-10
(PID.TID 0000.0001)  cg2d: iter=   104 ; resid.=  1.44549648762855E-10
(PID.TID 0000.0001)  cg2d: iter=   105 ; resid.=  1.14283965745537E-10
(PID.TID 0000.0001)  cg2d: iter=   106 ; resid.=  9.28283141630519E-11
(PID.TID 0000.0001)  cg2d: iter=   107 ; resid.=  7.11732837917848E-11
(PID.TID 0000.0001)  cg2d: iter=   108 ; resid.=  5.64363081405940E-11
(PID.TID 0000.0001)  cg2d: iter=   109 ; resid.=  4.27092023767087E-11
(PID.TID 0000.0001)  cg2d: iter=   110 ; resid.=  3.57460571005385E-11
(PID.TID 0000.0001)  cg2d: iter=   111 ; resid.=  2.72836537725899E-11
(PID.TID 0000.0001)  cg2d: iter=   112 ; resid.=  1.99502256623749E-11
(PID.TID 0000.0001)  cg2d: iter=   113 ; resid.=  1.39142529260752E-11
(PID.TID 0000.0001)  cg2d: iter=   114 ; resid.=  1.00179908221023E-11
(PID.TID 0000.0001)  cg2d: iter=   115 ; resid.=  7.27796040771334E-12
(PID.TID 0000.0001)  cg2d: iter=   116 ; resid.=  5.32547729955159E-12
(PID.TID 0000.0001)  cg2d: iter=   117 ; resid.=  3.98400090627693E-12
(PID.TID 0000.0001)  cg2d: iter=   118 ; resid.=  3.21330465779087E-12
(PID.TID 0000.0001)  cg2d: iter=   119 ; resid.=  2.41614390634221E-12
(PID.TID 0000.0001)  cg2d: iter=   120 ; resid.=  1.69388812595829E-12
(PID.TID 0000.0001)  cg2d: iter=   121 ; resid.=  1.29633884246571E-12
(PID.TID 0000.0001)  cg2d: iter=   122 ; resid.=  1.02867147927262E-12
(PID.TID 0000.0001)  cg2d: iter=   123 ; resid.=  9.69479391528175E-13
(PID.TID 0000.0001)  cg2d: iter=   124 ; resid.=  8.12372067207526E-13
(PID.TID 0000.0001)  cg2d: iter=   125 ; resid.=  6.38182992781386E-13
(PID.TID 0000.0001)  cg2d: iter=   126 ; resid.=  4.53274461851421E-13
(PID.TID 0000.0001)  cg2d: iter=   127 ; resid.=  3.41546522515493E-13
(PID.TID 0000.0001)  cg2d: iter=   128 ; resid.=  2.60678503464172E-13
(PID.TID 0000.0001)  cg2d: iter=   129 ; resid.=  1.82686819308922E-13
(PID.TID 0000.0001)  cg2d: iter=   130 ; resid.=  1.41161505193836E-13
(PID.TID 0000.0001)  cg2d: iter=   131 ; resid.=  9.79099816708816E-14
DEBUG_STATS_RL:    cg2d_x (SOLVE_FOR_PRESSURE)  min= -1.73308221533562E+01
DEBUG_STATS_RL:    cg2d_x (SOLVE_FOR_PRESSURE)  max=  7.40235908510238E+00
DEBUG_STATS_RL:    cg2d_x (SOLVE_FOR_PRESSURE) mean= -1.74939829942342E+00
DEBUG_STATS_RL:    cg2d_x (SOLVE_FOR_PRESSURE) S.D.=  6.67676731720522E+00
(PID.TID 0000.0001)      cg2d_init_res =   2.77270353979529E-01
(PID.TID 0000.0001)      cg2d_iters(min,last) =      -1     131
(PID.TID 0000.0001)      cg2d_last_res =   9.79099816708816E-14
(PID.TID 0000.0001) // =======================================================
(PID.TID 0000.0001) // Begin MONITOR dynamic field statistics
(PID.TID 0000.0001) // =======================================================
(PID.TID 0000.0001) %MON time_tsnumber                =                    57
(PID.TID 0000.0001) %MON time_secondsf                =   4.9248000000000E+06
(PID.TID 0000.0001) %MON dynstat_eta_max              =   7.5457279154962E-01
(PID.TID 0000.0001) %MON dynstat_eta_min              =  -1.7666485375491E+00
(PID.TID 0000.0001) %MON dynstat_eta_mean             =  -4.2668754360880E-03
(PID.TID 0000.0001) %MON dynstat_eta_sd               =   5.8290738918913E-01
(PID.TID 0000.0001) %MON dynstat_eta_del2             =   2.3486534209424E-03
(PID.TID 0000.0001) %MON dynstat_uvel_max             =   1.4929197262639E-01
(PID.TID 0000.0001) %MON dynstat_uvel_min             =  -1.2964629800062E-01
(PID.TID 0000.0001) %MON dynstat_uvel_mean            =   1.9000999494274E-03
(PID.TID 0000.0001) %MON dynstat_uvel_sd              =   1.3814775105062E-02
(PID.TID 0000.0001) %MON dynstat_uvel_del2            =   8.4849258060871E-05
(PID.TID 0000.0001) %MON dynstat_vvel_max             =   1.4263096860903E-01
(PID.TID 0000.0001) %MON dynstat_vvel_min             =  -9.4170873235009E-02
(PID.TID 0000.0001) %MON dynstat_vvel_mean            =   7.6481612586984E-05
(PID.TID 0000.0001) %MON dynstat_vvel_sd              =   8.7860684611923E-03
(PID.TID 0000.0001) %MON dynstat_vvel_del2            =   7.3338676520603E-05
(PID.TID 0000.0001) %MON dynstat_wvel_max             =   1.3202580668487E-04
(PID.TID 0000.0001) %MON dynstat_wvel_min             =  -6.9170783025788E-05
(PID.TID 0000.0001) %MON dynstat_wvel_mean            =  -6.5163797911382E-23
(PID.TID 0000.0001) %MON dynstat_wvel_sd              =   1.1981977534402E-05
(PID.TID 0000.0001) %MON dynstat_wvel_del2            =   1.2395265845740E-07
(PID.TID 0000.0001) %MON dynstat_theta_max            =   3.0477577474515E+01
(PID.TID 0000.0001) %MON dynstat_theta_min            =  -1.9721384888284E+00
(PID.TID 0000.0001) %MON dynstat_theta_mean           =   3.6330677790665E+00
(PID.TID 0000.0001) %MON dynstat_theta_sd             =   4.4230379310918E+00
(PID.TID 0000.0001) %MON dynstat_theta_del2           =   4.8652857348190E-03
(PID.TID 0000.0001) %MON dynstat_salt_max             =   3.7475263170343E+01
(PID.TID 0000.0001) %MON dynstat_salt_min             =   2.9873542328657E+01
(PID.TID 0000.0001) %MON dynstat_salt_mean            =   3.4727981683667E+01
(PID.TID 0000.0001) %MON dynstat_salt_sd              =   2.9641284582420E-01
(PID.TID 0000.0001) %MON dynstat_salt_del2            =   9.8944737050645E-04
(PID.TID 0000.0001) %MON dynstat_sst_max              =   3.0477577474515E+01
(PID.TID 0000.0001) %MON dynstat_sst_min              =  -1.9721384888284E+00
(PID.TID 0000.0001) %MON dynstat_sst_mean             =   1.8981968214462E+01
(PID.TID 0000.0001) %MON dynstat_sst_sd               =   9.0504606897993E+00
(PID.TID 0000.0001) %MON dynstat_sst_del2             =   2.7829163750883E-02
(PID.TID 0000.0001) %MON dynstat_sss_max              =   3.7453534192865E+01
(PID.TID 0000.0001) %MON dynstat_sss_min              =   2.9873542328657E+01
(PID.TID 0000.0001) %MON dynstat_sss_mean             =   3.4851508803595E+01
(PID.TID 0000.0001) %MON dynstat_sss_sd               =   9.7970303339642E-01
(PID.TID 0000.0001) %MON dynstat_sss_del2             =   7.9716389739379E-03
(PID.TID 0000.0001) %MON forcing_qnet_max             =   3.2767257181803E+02
(PID.TID 0000.0001) %MON forcing_qnet_min             =  -1.6954189707438E+02
(PID.TID 0000.0001) %MON forcing_qnet_mean            =  -1.1508516483050E+01
(PID.TID 0000.0001) %MON forcing_qnet_sd              =   6.4697646918086E+01
(PID.TID 0000.0001) %MON forcing_qnet_del2            =   8.9565534558300E-01
(PID.TID 0000.0001) %MON forcing_qsw_max              =   0.0000000000000E+00
(PID.TID 0000.0001) %MON forcing_qsw_min              =   0.0000000000000E+00
(PID.TID 0000.0001) %MON forcing_qsw_mean             =   0.0000000000000E+00
(PID.TID 0000.0001) %MON forcing_qsw_sd               =   0.0000000000000E+00
(PID.TID 0000.0001) %MON forcing_qsw_del2             =   0.0000000000000E+00
(PID.TID 0000.0001) %MON forcing_empmr_max            =   6.9218192303803E-05
(PID.TID 0000.0001) %MON forcing_empmr_min            =  -7.5680005314401E-05
(PID.TID 0000.0001) %MON forcing_empmr_mean           =   7.9941974029146E-07
(PID.TID 0000.0001) %MON forcing_empmr_sd             =   2.7118041416458E-05
(PID.TID 0000.0001) %MON forcing_empmr_del2           =   3.5326953117768E-07
(PID.TID 0000.0001) %MON forcing_fu_max               =   3.2066449820995E-01
(PID.TID 0000.0001) %MON forcing_fu_min               =  -2.7496327509483E-01
(PID.TID 0000.0001) %MON forcing_fu_mean              =   1.8666937100678E-02
(PID.TID 0000.0001) %MON forcing_fu_sd                =   9.4247901717010E-02
(PID.TID 0000.0001) %MON forcing_fu_del2              =   7.0585629130029E-04
(PID.TID 0000.0001) %MON forcing_fv_max               =   1.5726317167282E-01
(PID.TID 0000.0001) %MON forcing_fv_min               =  -1.8333285748959E-01
(PID.TID 0000.0001) %MON forcing_fv_mean              =  -7.3314367906246E-03
(PID.TID 0000.0001) %MON forcing_fv_sd                =   4.2374687785746E-02
(PID.TID 0000.0001) %MON forcing_fv_del2              =   4.7761157425794E-04
(PID.TID 0000.0001) %MON trAdv_CFL_u_max              =   4.0814464105005E-02
(PID.TID 0000.0001) %MON trAdv_CFL_v_max              =   2.7569672085685E-02
(PID.TID 0000.0001) %MON trAdv_CFL_w_max              =   3.1483957418937E-02
(PID.TID 0000.0001) %MON advcfl_uvel_max              =   3.9030125665341E-02
(PID.TID 0000.0001) %MON advcfl_vvel_max              =   2.7710909675017E-02
(PID.TID 0000.0001) %MON advcfl_wvel_max              =   3.1322821526908E-02
(PID.TID 0000.0001) %MON advcfl_W_hf_max              =   3.8034854711245E-02
(PID.TID 0000.0001) %MON pe_b_mean                    =   4.3481407251237E-04
(PID.TID 0000.0001) %MON ke_max                       =   1.4607428384988E-02
(PID.TID 0000.0001) %MON ke_mean                      =   1.2300423494404E-04
(PID.TID 0000.0001) %MON ke_vol                       =   1.3226782436723E+18
(PID.TID 0000.0001) %MON vort_r_min                   =  -4.3519325344659E-07
(PID.TID 0000.0001) %MON vort_r_max                   =   4.5020852583307E-07
(PID.TID 0000.0001) %MON vort_a_mean                  =  -2.5274807340943E-05
(PID.TID 0000.0001) %MON vort_a_sd                    =   7.3604556289488E-05
(PID.TID 0000.0001) %MON vort_p_mean                  =  -3.1845655728274E-05
(PID.TID 0000.0001) %MON vort_p_sd                    =   1.3162450184999E-04
(PID.TID 0000.0001) %MON surfExpan_theta_mean         =   5.5926967765419E-08
(PID.TID 0000.0001) %MON surfExpan_salt_mean          =   6.2493606792546E-08
(PID.TID 0000.0001) // =======================================================
(PID.TID 0000.0001) // End MONITOR dynamic field statistics
(PID.TID 0000.0001) // =======================================================
 EXTERNAL_FIELDS_LOAD,        57 : iP,iLd,i0,i1=    2    3    2    3 ; Wght=  0.6000000000  0.4000000000
 EXTERNAL_FIELDS_LOAD: (fu0,1),fu,fv= -1.4435E-02 -2.7199E-02 -1.9540E-02 -1.0813E-02
 EXTERNAL_FIELDS_LOAD: SST,SSS,Q,E-P= -3.9268E-01  3.4484E+01  2.3045E+02  8.6586E-06
DEBUG_STATS_RL:          Uvel (THERMODYNAMICS)  min= -1.29646298000616E-01
DEBUG_STATS_RL:          Uvel (THERMODYNAMICS)  max=  1.49291972626392E-01
DEBUG_STATS_RL:          Uvel (THERMODYNAMICS) mean=  5.22303621037565E-03
DEBUG_STATS_RL:          Uvel (THERMODYNAMICS) S.D.=  2.13476641946010E-02
DEBUG_STATS_RL:          Vvel (THERMODYNAMICS)  min= -9.41708732350088E-02
DEBUG_STATS_RL:          Vvel (THERMODYNAMICS)  max=  1.42630968609028E-01
DEBUG_STATS_RL:          Vvel (THERMODYNAMICS) mean=  1.25430384115546E-03
DEBUG_STATS_RL:          Vvel (THERMODYNAMICS) S.D.=  1.41298459755721E-02
DEBUG_STATS_RL:          Wvel (THERMODYNAMICS)  min= -6.91707830257879E-05
DEBUG_STATS_RL:          Wvel (THERMODYNAMICS)  max=  1.32025806684872E-04
DEBUG_STATS_RL:          Wvel (THERMODYNAMICS) mean= -1.76921780259723E-08
DEBUG_STATS_RL:          Wvel (THERMODYNAMICS) S.D.=  1.05559091208935E-05
DEBUG_STATS_RL:         Theta (THERMODYNAMICS)  min= -1.97053603731141E+00
DEBUG_STATS_RL:         Theta (THERMODYNAMICS)  max=  3.05022538806038E+01
DEBUG_STATS_RL:         Theta (THERMODYNAMICS) mean=  3.22918030639154E+00
DEBUG_STATS_RL:         Theta (THERMODYNAMICS) S.D.=  5.87620964746492E+00
DEBUG_STATS_RL:          Salt (THERMODYNAMICS)  min=  9.99999999999997E-03
DEBUG_STATS_RL:          Salt (THERMODYNAMICS)  max=  3.74757864527041E+01
DEBUG_STATS_RL:          Salt (THERMODYNAMICS) mean=  1.88548729520206E+01
DEBUG_STATS_RL:          Salt (THERMODYNAMICS) S.D.=  1.73003981694793E+01
DEBUG_STATS_RL:         GtNm1 (THERMODYNAMICS)  min= -5.74950667671883E-06
DEBUG_STATS_RL:         GtNm1 (THERMODYNAMICS)  max=  3.04903846236413E-06
DEBUG_STATS_RL:         GtNm1 (THERMODYNAMICS) mean=  2.47242262316022E-09
DEBUG_STATS_RL:         GtNm1 (THERMODYNAMICS) S.D.=  1.79123818239385E-07
DEBUG_STATS_RL:         GsNm1 (THERMODYNAMICS)  min= -5.68660010659863E-07
DEBUG_STATS_RL:         GsNm1 (THERMODYNAMICS)  max=  3.71848154407380E-07
DEBUG_STATS_RL:         GsNm1 (THERMODYNAMICS) mean= -4.06236802329262E-10
DEBUG_STATS_RL:         GsNm1 (THERMODYNAMICS) S.D.=  1.79685261584363E-08
DEBUG_STATS_RL:                EtaN (DYNAMICS)  min= -1.76664853754911E+00
DEBUG_STATS_RL:                EtaN (DYNAMICS)  max=  7.54572791549620E-01
DEBUG_STATS_RL:                EtaN (DYNAMICS) mean= -1.78328063142041E-01
DEBUG_STATS_RL:                EtaN (DYNAMICS) S.D.=  6.80608289215623E-01
DEBUG_STATS_RL:                Uvel (DYNAMICS)  min= -1.29646298000616E-01
DEBUG_STATS_RL:                Uvel (DYNAMICS)  max=  1.49291972626392E-01
DEBUG_STATS_RL:                Uvel (DYNAMICS) mean=  5.22303621037565E-03
DEBUG_STATS_RL:                Uvel (DYNAMICS) S.D.=  2.13476641946010E-02
DEBUG_STATS_RL:                Vvel (DYNAMICS)  min= -9.41708732350088E-02
DEBUG_STATS_RL:                Vvel (DYNAMICS)  max=  1.42630968609028E-01
DEBUG_STATS_RL:                Vvel (DYNAMICS) mean=  1.25430384115546E-03
DEBUG_STATS_RL:                Vvel (DYNAMICS) S.D.=  1.41298459755721E-02
DEBUG_STATS_RL:                Wvel (DYNAMICS)  min= -6.91707830257879E-05
DEBUG_STATS_RL:                Wvel (DYNAMICS)  max=  1.32025806684872E-04
DEBUG_STATS_RL:                Wvel (DYNAMICS) mean= -1.76921780259723E-08
DEBUG_STATS_RL:                Wvel (DYNAMICS) S.D.=  1.05559091208935E-05
DEBUG_STATS_RL:               Theta (DYNAMICS)  min= -1.97053603731141E+00
DEBUG_STATS_RL:               Theta (DYNAMICS)  max=  3.05022538806038E+01
DEBUG_STATS_RL:               Theta (DYNAMICS) mean=  3.22918030639154E+00
DEBUG_STATS_RL:               Theta (DYNAMICS) S.D.=  5.87620964746492E+00
DEBUG_STATS_RL:                Salt (DYNAMICS)  min=  9.99999999999997E-03
DEBUG_STATS_RL:                Salt (DYNAMICS)  max=  3.74757864527041E+01
DEBUG_STATS_RL:                Salt (DYNAMICS) mean=  1.88548729520206E+01
DEBUG_STATS_RL:                Salt (DYNAMICS) S.D.=  1.73003981694793E+01
DEBUG_STATS_RL:                  Gu (DYNAMICS)  min= -1.29221556923525E-01
DEBUG_STATS_RL:                  Gu (DYNAMICS)  max=  1.43155889077300E-01
DEBUG_STATS_RL:                  Gu (DYNAMICS) mean=  5.23641943336787E-03
DEBUG_STATS_RL:                  Gu (DYNAMICS) S.D.=  2.14799029044679E-02
DEBUG_STATS_RL:                  Gv (DYNAMICS)  min= -9.74565793561723E-02
DEBUG_STATS_RL:                  Gv (DYNAMICS)  max=  1.44442636295153E-01
DEBUG_STATS_RL:                  Gv (DYNAMICS) mean=  3.62656095176112E-03
DEBUG_STATS_RL:                  Gv (DYNAMICS) S.D.=  1.56475665034614E-02
DEBUG_STATS_RL:               GuNm1 (DYNAMICS)  min= -9.71413626647647E-06
DEBUG_STATS_RL:               GuNm1 (DYNAMICS)  max=  9.29349876730363E-06
DEBUG_STATS_RL:               GuNm1 (DYNAMICS) mean=  3.49688683865519E-09
DEBUG_STATS_RL:               GuNm1 (DYNAMICS) S.D.=  1.19303313349230E-06
DEBUG_STATS_RL:               GvNm1 (DYNAMICS)  min= -9.69793838247676E-06
DEBUG_STATS_RL:               GvNm1 (DYNAMICS)  max=  1.60764901159887E-05
DEBUG_STATS_RL:               GvNm1 (DYNAMICS) mean=  7.42779361120243E-07
DEBUG_STATS_RL:               GvNm1 (DYNAMICS) S.D.=  2.63833728903931E-06
DEBUG_STATS_RL:               GtNm1 (DYNAMICS)  min= -5.74950667671883E-06
DEBUG_STATS_RL:               GtNm1 (DYNAMICS)  max=  3.04903846236413E-06
DEBUG_STATS_RL:               GtNm1 (DYNAMICS) mean=  2.47242262316022E-09
DEBUG_STATS_RL:               GtNm1 (DYNAMICS) S.D.=  1.79123818239385E-07
DEBUG_STATS_RL:               GsNm1 (DYNAMICS)  min= -5.68660010659863E-07
DEBUG_STATS_RL:               GsNm1 (DYNAMICS)  max=  3.71848154407380E-07
DEBUG_STATS_RL:               GsNm1 (DYNAMICS) mean= -4.06236802329262E-10
DEBUG_STATS_RL:               GsNm1 (DYNAMICS) S.D.=  1.79685261584363E-08
DEBUG_STATS_RL:    cg2d_b (SOLVE_FOR_PRESSURE)  min= -2.02430981919525E+04
DEBUG_STATS_RL:    cg2d_b (SOLVE_FOR_PRESSURE)  max=  2.56354489266336E+04
DEBUG_STATS_RL:    cg2d_b (SOLVE_FOR_PRESSURE) mean=  4.15240226347040E+00
DEBUG_STATS_RL:    cg2d_b (SOLVE_FOR_PRESSURE) S.D.=  3.85840843523857E+03
 cg2d: Sum(rhs),rhsMax =   3.74981193715146E-01  1.68380492251138E+00
(PID.TID 0000.0001)  cg2d: iter=     1 ; resid.=  9.01935932912061E-02
(PID.TID 0000.0001)  cg2d: iter=     2 ; resid.=  6.70751964790497E-02
(PID.TID 0000.0001)  cg2d: iter=     3 ; resid.=  5.66260634781979E-02
(PID.TID 0000.0001)  cg2d: iter=     4 ; resid.=  4.66440610165247E-02
(PID.TID 0000.0001)  cg2d: iter=     5 ; resid.=  4.08349592194362E-02
(PID.TID 0000.0001)  cg2d: iter=     6 ; resid.=  3.13112679180613E-02
(PID.TID 0000.0001)  cg2d: iter=     7 ; resid.=  2.69297768845193E-02
(PID.TID 0000.0001)  cg2d: iter=     8 ; resid.=  2.32967456941951E-02
(PID.TID 0000.0001)  cg2d: iter=     9 ; resid.=  1.86790281018428E-02
(PID.TID 0000.0001)  cg2d: iter=    10 ; resid.=  1.70196617799691E-02
(PID.TID 0000.0001)  cg2d: iter=    11 ; resid.=  1.60360183027822E-02
(PID.TID 0000.0001)  cg2d: iter=    12 ; resid.=  1.38619025031443E-02
(PID.TID 0000.0001)  cg2d: iter=    13 ; resid.=  1.12148913642328E-02
(PID.TID 0000.0001)  cg2d: iter=    14 ; resid.=  9.22656538442852E-03
(PID.TID 0000.0001)  cg2d: iter=    15 ; resid.=  7.45390752153049E-03
(PID.TID 0000.0001)  cg2d: iter=    16 ; resid.=  6.58077642092354E-03
(PID.TID 0000.0001)  cg2d: iter=    17 ; resid.=  5.67233634910563E-03
(PID.TID 0000.0001)  cg2d: iter=    18 ; resid.=  4.95084799012549E-03
(PID.TID 0000.0001)  cg2d: iter=    19 ; resid.=  4.05995224880905E-03
(PID.TID 0000.0001)  cg2d: iter=    20 ; resid.=  3.22770766266875E-03
(PID.TID 0000.0001)  cg2d: iter=    21 ; resid.=  2.67212769077127E-03
(PID.TID 0000.0001)  cg2d: iter=    22 ; resid.=  2.38702302108794E-03
(PID.TID 0000.0001)  cg2d: iter=    23 ; resid.=  1.96859263896441E-03
(PID.TID 0000.0001)  cg2d: iter=    24 ; resid.=  1.69236060144757E-03
(PID.TID 0000.0001)  cg2d: iter=    25 ; resid.=  1.41472678941015E-03
(PID.TID 0000.0001)  cg2d: iter=    26 ; resid.=  1.10739378497265E-03
(PID.TID 0000.0001)  cg2d: iter=    27 ; resid.=  9.64576401605441E-04
(PID.TID 0000.0001)  cg2d: iter=    28 ; resid.=  8.13699542538902E-04
(PID.TID 0000.0001)  cg2d: iter=    29 ; resid.=  6.99829174224008E-04
(PID.TID 0000.0001)  cg2d: iter=    30 ; resid.=  5.69224567949067E-04
(PID.TID 0000.0001)  cg2d: iter=    31 ; resid.=  4.87093292909458E-04
(PID.TID 0000.0001)  cg2d: iter=    32 ; resid.=  3.84933162305356E-04
(PID.TID 0000.0001)  cg2d: iter=    33 ; resid.=  3.08432219133639E-04
(PID.TID 0000.0001)  cg2d: iter=    34 ; resid.=  2.76070637301738E-04
(PID.TID 0000.0001)  cg2d: iter=    35 ; resid.=  2.27693533376946E-04
(PID.TID 0000.0001)  cg2d: iter=    36 ; resid.=  1.90416310694049E-04
(PID.TID 0000.0001)  cg2d: iter=    37 ; resid.=  1.49006810632784E-04
(PID.TID 0000.0001)  cg2d: iter=    38 ; resid.=  1.22156748453217E-04
(PID.TID 0000.0001)  cg2d: iter=    39 ; resid.=  1.02405843704739E-04
(PID.TID 0000.0001)  cg2d: iter=    40 ; resid.=  9.03373734797625E-05
(PID.TID 0000.0001)  cg2d: iter=    41 ; resid.=  8.26827530315476E-05
(PID.TID 0000.0001)  cg2d: iter=    42 ; resid.=  7.64440279370400E-05
(PID.TID 0000.0001)  cg2d: iter=    43 ; resid.=  6.36503279718182E-05
(PID.TID 0000.0001)  cg2d: iter=    44 ; resid.=  4.98722793227627E-05
(PID.TID 0000.0001)  cg2d: iter=    45 ; resid.=  3.73184462144855E-05
(PID.TID 0000.0001)  cg2d: iter=    46 ; resid.=  2.74106420475526E-05
(PID.TID 0000.0001)  cg2d: iter=    47 ; resid.=  2.13351262600593E-05
(PID.TID 0000.0001)  cg2d: iter=    48 ; resid.=  1.70743662792179E-05
(PID.TID 0000.0001)  cg2d: iter=    49 ; resid.=  1.36120080028117E-05
(PID.TID 0000.0001)  cg2d: iter=    50 ; resid.=  1.03282589365288E-05
(PID.TID 0000.0001)  cg2d: iter=    51 ; resid.=  7.98007760220312E-06
(PID.TID 0000.0001)  cg2d: iter=    52 ; resid.=  6.27070204258971E-06
(PID.TID 0000.0001)  cg2d: iter=    53 ; resid.=  5.15359720140061E-06
(PID.TID 0000.0001)  cg2d: iter=    54 ; resid.=  4.27048597550308E-06
(PID.TID 0000.0001)  cg2d: iter=    55 ; resid.=  3.66631773388388E-06
(PID.TID 0000.0001)  cg2d: iter=    56 ; resid.=  3.36469462049267E-06
(PID.TID 0000.0001)  cg2d: iter=    57 ; resid.=  3.02923132175398E-06
(PID.TID 0000.0001)  cg2d: iter=    58 ; resid.=  2.51922756534367E-06
(PID.TID 0000.0001)  cg2d: iter=    59 ; resid.=  2.03482781405013E-06
(PID.TID 0000.0001)  cg2d: iter=    60 ; resid.=  1.56521440897215E-06
(PID.TID 0000.0001)  cg2d: iter=    61 ; resid.=  1.22385794227275E-06
(PID.TID 0000.0001)  cg2d: iter=    62 ; resid.=  1.05742081388967E-06
(PID.TID 0000.0001)  cg2d: iter=    63 ; resid.=  8.36406055724681E-07
(PID.TID 0000.0001)  cg2d: iter=    64 ; resid.=  6.86011606468153E-07
(PID.TID 0000.0001)  cg2d: iter=    65 ; resid.=  5.40038688381456E-07
(PID.TID 0000.0001)  cg2d: iter=    66 ; resid.=  4.29998249641563E-07
(PID.TID 0000.0001)  cg2d: iter=    67 ; resid.=  3.80241064499848E-07
(PID.TID 0000.0001)  cg2d: iter=    68 ; resid.=  3.13720589635819E-07
(PID.TID 0000.0001)  cg2d: iter=    69 ; resid.=  2.65443589847361E-07
(PID.TID 0000.0001)  cg2d: iter=    70 ; resid.=  2.14663852969517E-07
(PID.TID 0000.0001)  cg2d: iter=    71 ; resid.=  1.85033503655161E-07
(PID.TID 0000.0001)  cg2d: iter=    72 ; resid.=  1.53926145370234E-07
(PID.TID 0000.0001)  cg2d: iter=    73 ; resid.=  1.31843001055708E-07
(PID.TID 0000.0001)  cg2d: iter=    74 ; resid.=  1.05842309491807E-07
(PID.TID 0000.0001)  cg2d: iter=    75 ; resid.=  8.28866782420608E-08
(PID.TID 0000.0001)  cg2d: iter=    76 ; resid.=  6.85351584714304E-08
(PID.TID 0000.0001)  cg2d: iter=    77 ; resid.=  5.79755551742669E-08
(PID.TID 0000.0001)  cg2d: iter=    78 ; resid.=  5.32577127763030E-08
(PID.TID 0000.0001)  cg2d: iter=    79 ; resid.=  4.75429407362211E-08
(PID.TID 0000.0001)  cg2d: iter=    80 ; resid.=  3.99412466972908E-08
(PID.TID 0000.0001)  cg2d: iter=    81 ; resid.=  3.37603092535094E-08
(PID.TID 0000.0001)  cg2d: iter=    82 ; resid.=  2.73023137780186E-08
(PID.TID 0000.0001)  cg2d: iter=    83 ; resid.=  2.16901001861750E-08
(PID.TID 0000.0001)  cg2d: iter=    84 ; resid.=  1.53996975759135E-08
(PID.TID 0000.0001)  cg2d: iter=    85 ; resid.=  1.05002833392724E-08
(PID.TID 0000.0001)  cg2d: iter=    86 ; resid.=  7.88721452105652E-09
(PID.TID 0000.0001)  cg2d: iter=    87 ; resid.=  6.18522664423746E-09
(PID.TID 0000.0001)  cg2d: iter=    88 ; resid.=  4.70341823349318E-09
(PID.TID 0000.0001)  cg2d: iter=    89 ; resid.=  3.54988491367998E-09
(PID.TID 0000.0001)  cg2d: iter=    90 ; resid.=  3.05136730286882E-09
(PID.TID 0000.0001)  cg2d: iter=    91 ; resid.=  2.45143119709391E-09
(PID.TID 0000.0001)  cg2d: iter=    92 ; resid.=  1.74545275346641E-09
(PID.TID 0000.0001)  cg2d: iter=    93 ; resid.=  1.27926326180963E-09
(PID.TID 0000.0001)  cg2d: iter=    94 ; resid.=  9.81640045517317E-10
(PID.TID 0000.0001)  cg2d: iter=    95 ; resid.=  8.28740950438882E-10
(PID.TID 0000.0001)  cg2d: iter=    96 ; resid.=  6.66586678472929E-10
(PID.TID 0000.0001)  cg2d: iter=    97 ; resid.=  4.50781302497108E-10
(PID.TID 0000.0001)  cg2d: iter=    98 ; resid.=  3.47044901939792E-10
(PID.TID 0000.0001)  cg2d: iter=    99 ; resid.=  2.62927643515368E-10
(PID.TID 0000.0001)  cg2d: iter=   100 ; resid.=  2.23524643295993E-10
(PID.TID 0000.0001)  cg2d: iter=   101 ; resid.=  1.78718654583380E-10
(PID.TID 0000.0001)  cg2d: iter=   102 ; resid.=  1.36294960665986E-10
(PID.TID 0000.0001)  cg2d: iter=   103 ; resid.=  1.07925723984033E-10
(PID.TID 0000.0001)  cg2d: iter=   104 ; resid.=  8.49515016515639E-11
(PID.TID 0000.0001)  cg2d: iter=   105 ; resid.=  6.66846409096751E-11
(PID.TID 0000.0001)  cg2d: iter=   106 ; resid.=  5.30206748080234E-11
(PID.TID 0000.0001)  cg2d: iter=   107 ; resid.=  4.08368826669397E-11
(PID.TID 0000.0001)  cg2d: iter=   108 ; resid.=  3.39028790335360E-11
(PID.TID 0000.0001)  cg2d: iter=   109 ; resid.=  2.71161918257471E-11
(PID.TID 0000.0001)  cg2d: iter=   110 ; resid.=  2.44432724368506E-11
(PID.TID 0000.0001)  cg2d: iter=   111 ; resid.=  2.03179099787310E-11
(PID.TID 0000.0001)  cg2d: iter=   112 ; resid.=  1.67305755964483E-11
(PID.TID 0000.0001)  cg2d: iter=   113 ; resid.=  1.31524947462353E-11
(PID.TID 0000.0001)  cg2d: iter=   114 ; resid.=  1.05238357253996E-11
(PID.TID 0000.0001)  cg2d: iter=   115 ; resid.=  8.55937990422390E-12
(PID.TID 0000.0001)  cg2d: iter=   116 ; resid.=  6.83680538540520E-12
(PID.TID 0000.0001)  cg2d: iter=   117 ; resid.=  5.41255752013258E-12
(PID.TID 0000.0001)  cg2d: iter=   118 ; resid.=  4.40491686997495E-12
(PID.TID 0000.0001)  cg2d: iter=   119 ; resid.=  3.28434743787902E-12
(PID.TID 0000.0001)  cg2d: iter=   120 ; resid.=  2.42143999595224E-12
(PID.TID 0000.0001)  cg2d: iter=   121 ; resid.=  1.93806693394165E-12
(PID.TID 0000.0001)  cg2d: iter=   122 ; resid.=  1.56276343741429E-12
(PID.TID 0000.0001)  cg2d: iter=   123 ; resid.=  1.39503326723993E-12
(PID.TID 0000.0001)  cg2d: iter=   124 ; resid.=  1.05624914625369E-12
(PID.TID 0000.0001)  cg2d: iter=   125 ; resid.=  7.72640459022059E-13
(PID.TID 0000.0001)  cg2d: iter=   126 ; resid.=  5.12908877775432E-13
(PID.TID 0000.0001)  cg2d: iter=   127 ; resid.=  3.77255108970149E-13
(PID.TID 0000.0001)  cg2d: iter=   128 ; resid.=  2.84043738637615E-13
(PID.TID 0000.0001)  cg2d: iter=   129 ; resid.=  1.97505579518436E-13
(PID.TID 0000.0001)  cg2d: iter=   130 ; resid.=  1.52033201234300E-13
(PID.TID 0000.0001)  cg2d: iter=   131 ; resid.=  1.04233729655064E-13
(PID.TID 0000.0001)  cg2d: iter=   132 ; resid.=  7.44990210240156E-14
DEBUG_STATS_RL:    cg2d_x (SOLVE_FOR_PRESSURE)  min= -1.75018567106814E+01
DEBUG_STATS_RL:    cg2d_x (SOLVE_FOR_PRESSURE)  max=  7.39495834902567E+00
DEBUG_STATS_RL:    cg2d_x (SOLVE_FOR_PRESSURE) mean= -1.74877530846334E+00
DEBUG_STATS_RL:    cg2d_x (SOLVE_FOR_PRESSURE) S.D.=  6.69811056036555E+00
(PID.TID 0000.0001)      cg2d_init_res =   2.72255382297767E-01
(PID.TID 0000.0001)      cg2d_iters(min,last) =      -1     132
(PID.TID 0000.0001)      cg2d_last_res =   7.44990210240156E-14
(PID.TID 0000.0001) // =======================================================
(PID.TID 0000.0001) // Begin MONITOR dynamic field statistics
(PID.TID 0000.0001) // =======================================================
(PID.TID 0000.0001) %MON time_tsnumber                =                    58
(PID.TID 0000.0001) %MON time_secondsf                =   5.0112000000000E+06
(PID.TID 0000.0001) %MON dynstat_eta_max              =   7.5381838420237E-01
(PID.TID 0000.0001) %MON dynstat_eta_min              =  -1.7840832528728E+00
(PID.TID 0000.0001) %MON dynstat_eta_mean             =  -4.3325168810483E-03
(PID.TID 0000.0001) %MON dynstat_eta_sd               =   5.8448084998694E-01
(PID.TID 0000.0001) %MON dynstat_eta_del2             =   2.3566015787425E-03
(PID.TID 0000.0001) %MON dynstat_uvel_max             =   1.4384613964754E-01
(PID.TID 0000.0001) %MON dynstat_uvel_min             =  -1.2904266706867E-01
(PID.TID 0000.0001) %MON dynstat_uvel_mean            =   1.9787403070034E-03
(PID.TID 0000.0001) %MON dynstat_uvel_sd              =   1.3712336525881E-02
(PID.TID 0000.0001) %MON dynstat_uvel_del2            =   8.4329416969619E-05
(PID.TID 0000.0001) %MON dynstat_vvel_max             =   1.4196126886799E-01
(PID.TID 0000.0001) %MON dynstat_vvel_min             =  -9.5371046960956E-02
(PID.TID 0000.0001) %MON dynstat_vvel_mean            =   8.2958331997329E-05
(PID.TID 0000.0001) %MON dynstat_vvel_sd              =   8.7755163186038E-03
(PID.TID 0000.0001) %MON dynstat_vvel_del2            =   7.3110384030803E-05
(PID.TID 0000.0001) %MON dynstat_wvel_max             =   1.2063023021412E-04
(PID.TID 0000.0001) %MON dynstat_wvel_min             =  -6.7851762831153E-05
(PID.TID 0000.0001) %MON dynstat_wvel_mean            =  -3.0545100203656E-22
(PID.TID 0000.0001) %MON dynstat_wvel_sd              =   1.1882625360182E-05
(PID.TID 0000.0001) %MON dynstat_wvel_del2            =   1.2281677535547E-07
(PID.TID 0000.0001) %MON dynstat_theta_max            =   3.0502253880604E+01
(PID.TID 0000.0001) %MON dynstat_theta_min            =  -1.9705360373114E+00
(PID.TID 0000.0001) %MON dynstat_theta_mean           =   3.6331295344834E+00
(PID.TID 0000.0001) %MON dynstat_theta_sd             =   4.4232601072842E+00
(PID.TID 0000.0001) %MON dynstat_theta_del2           =   4.8736767224732E-03
(PID.TID 0000.0001) %MON dynstat_salt_max             =   3.7475786452704E+01
(PID.TID 0000.0001) %MON dynstat_salt_min             =   2.9876238710378E+01
(PID.TID 0000.0001) %MON dynstat_salt_mean            =   3.4727981361755E+01
(PID.TID 0000.0001) %MON dynstat_salt_sd              =   2.9641739317766E-01
(PID.TID 0000.0001) %MON dynstat_salt_del2            =   9.8941416613838E-04
(PID.TID 0000.0001) %MON dynstat_sst_max              =   3.0502253880604E+01
(PID.TID 0000.0001) %MON dynstat_sst_min              =  -1.9705360373114E+00
(PID.TID 0000.0001) %MON dynstat_sst_mean             =   1.8987367480935E+01
(PID.TID 0000.0001) %MON dynstat_sst_sd               =   9.0548468775824E+00
(PID.TID 0000.0001) %MON dynstat_sst_del2             =   2.7873957358702E-02
(PID.TID 0000.0001) %MON dynstat_sss_max              =   3.7454379608853E+01
(PID.TID 0000.0001) %MON dynstat_sss_min              =   2.9876238710378E+01
(PID.TID 0000.0001) %MON dynstat_sss_mean             =   3.4851119700503E+01
(PID.TID 0000.0001) %MON dynstat_sss_sd               =   9.7998812412646E-01
(PID.TID 0000.0001) %MON dynstat_sss_del2             =   7.9789004836988E-03
(PID.TID 0000.0001) %MON forcing_qnet_max             =   3.2487442016602E+02
(PID.TID 0000.0001) %MON forcing_qnet_min             =  -1.6924261779785E+02
(PID.TID 0000.0001) %MON forcing_qnet_mean            =  -1.1285176983424E+01
(PID.TID 0000.0001) %MON forcing_qnet_sd              =   6.3449695075861E+01
(PID.TID 0000.0001) %MON forcing_qnet_del2            =   8.9174766139185E-01
(PID.TID 0000.0001) %MON forcing_qsw_max              =   0.0000000000000E+00
(PID.TID 0000.0001) %MON forcing_qsw_min              =   0.0000000000000E+00
(PID.TID 0000.0001) %MON forcing_qsw_mean             =   0.0000000000000E+00
(PID.TID 0000.0001) %MON forcing_qsw_sd               =   0.0000000000000E+00
(PID.TID 0000.0001) %MON forcing_qsw_del2             =   0.0000000000000E+00
(PID.TID 0000.0001) %MON forcing_empmr_max            =   6.9212435960253E-05
(PID.TID 0000.0001) %MON forcing_empmr_min            =  -7.6079184907485E-05
(PID.TID 0000.0001) %MON forcing_empmr_mean           =   7.8632980941711E-07
(PID.TID 0000.0001) %MON forcing_empmr_sd             =   2.7052915154374E-05
(PID.TID 0000.0001) %MON forcing_empmr_del2           =   3.5339969316782E-07
(PID.TID 0000.0001) %MON forcing_fu_max               =   3.2260591387749E-01
(PID.TID 0000.0001) %MON forcing_fu_min               =  -2.8034790456295E-01
(PID.TID 0000.0001) %MON forcing_fu_mean              =   1.8761136690137E-02
(PID.TID 0000.0001) %MON forcing_fu_sd                =   9.4487425263087E-02
(PID.TID 0000.0001) %MON forcing_fu_del2              =   7.0683773160572E-04
(PID.TID 0000.0001) %MON forcing_fv_max               =   1.5618582963943E-01
(PID.TID 0000.0001) %MON forcing_fv_min               =  -1.8184682130814E-01
(PID.TID 0000.0001) %MON forcing_fv_mean              =  -7.3418651405940E-03
(PID.TID 0000.0001) %MON forcing_fv_sd                =   4.2230357499442E-02
(PID.TID 0000.0001) %MON forcing_fv_del2              =   4.7453329375474E-04
(PID.TID 0000.0001) %MON trAdv_CFL_u_max              =   3.9038052963012E-02
(PID.TID 0000.0001) %MON trAdv_CFL_v_max              =   2.7529093899073E-02
(PID.TID 0000.0001) %MON trAdv_CFL_w_max              =   2.9248794096341E-02
(PID.TID 0000.0001) %MON advcfl_uvel_max              =   3.7606395093778E-02
(PID.TID 0000.0001) %MON advcfl_vvel_max              =   2.7580797756026E-02
(PID.TID 0000.0001) %MON advcfl_wvel_max              =   3.1574323889466E-02
(PID.TID 0000.0001) %MON advcfl_W_hf_max              =   3.8340250437209E-02
(PID.TID 0000.0001) %MON pe_b_mean                    =   4.3716525253443E-04
(PID.TID 0000.0001) %MON ke_max                       =   1.4489047483513E-02
(PID.TID 0000.0001) %MON ke_mean                      =   1.2177898982638E-04
(PID.TID 0000.0001) %MON ke_vol                       =   1.3226782436723E+18
(PID.TID 0000.0001) %MON vort_r_min                   =  -4.2268779758748E-07
(PID.TID 0000.0001) %MON vort_r_max                   =   4.4088925382444E-07
(PID.TID 0000.0001) %MON vort_a_mean                  =  -2.5274807364179E-05
(PID.TID 0000.0001) %MON vort_a_sd                    =   7.3604569239750E-05
(PID.TID 0000.0001) %MON vort_p_mean                  =  -3.1845655757550E-05
(PID.TID 0000.0001) %MON vort_p_sd                    =   1.3162452619817E-04
(PID.TID 0000.0001) %MON surfExpan_theta_mean         =   7.6257533878957E-08
(PID.TID 0000.0001) %MON surfExpan_salt_mean          =   4.4843047667735E-08
(PID.TID 0000.0001) // =======================================================
(PID.TID 0000.0001) // End MONITOR dynamic field statistics
(PID.TID 0000.0001) // =======================================================
 EXTERNAL_FIELDS_LOAD,        58 : iP,iLd,i0,i1=    2    3    2    3 ; Wght=  0.5666666667  0.4333333333
 EXTERNAL_FIELDS_LOAD: (fu0,1),fu,fv= -1.4435E-02 -2.7199E-02 -1.9966E-02 -1.0244E-02
 EXTERNAL_FIELDS_LOAD: SST,SSS,Q,E-P= -3.8108E-01  3.4490E+01  2.2961E+02  8.6821E-06
DEBUG_STATS_RL:          Uvel (THERMODYNAMICS)  min= -1.29042667068672E-01
DEBUG_STATS_RL:          Uvel (THERMODYNAMICS)  max=  1.43846139647538E-01
DEBUG_STATS_RL:          Uvel (THERMODYNAMICS) mean=  5.30200314449938E-03
DEBUG_STATS_RL:          Uvel (THERMODYNAMICS) S.D.=  2.11547696067708E-02
DEBUG_STATS_RL:          Vvel (THERMODYNAMICS)  min= -9.53710469609565E-02
DEBUG_STATS_RL:          Vvel (THERMODYNAMICS)  max=  1.41961268867989E-01
DEBUG_STATS_RL:          Vvel (THERMODYNAMICS) mean=  1.14310620612849E-03
DEBUG_STATS_RL:          Vvel (THERMODYNAMICS) S.D.=  1.40912224653405E-02
DEBUG_STATS_RL:          Wvel (THERMODYNAMICS)  min= -6.78517628311531E-05
DEBUG_STATS_RL:          Wvel (THERMODYNAMICS)  max=  1.20630230214117E-04
DEBUG_STATS_RL:          Wvel (THERMODYNAMICS) mean= -4.00658216953172E-08
DEBUG_STATS_RL:          Wvel (THERMODYNAMICS) S.D.=  1.04665254445145E-05
DEBUG_STATS_RL:         Theta (THERMODYNAMICS)  min= -1.96895495723799E+00
DEBUG_STATS_RL:         Theta (THERMODYNAMICS)  max=  3.05266421506808E+01
DEBUG_STATS_RL:         Theta (THERMODYNAMICS) mean=  3.22928956972743E+00
DEBUG_STATS_RL:         Theta (THERMODYNAMICS) S.D.=  5.87670368743981E+00
DEBUG_STATS_RL:          Salt (THERMODYNAMICS)  min=  9.99999999999997E-03
DEBUG_STATS_RL:          Salt (THERMODYNAMICS)  max=  3.74762403758328E+01
DEBUG_STATS_RL:          Salt (THERMODYNAMICS) mean=  1.88548556943038E+01
DEBUG_STATS_RL:          Salt (THERMODYNAMICS) S.D.=  1.73003827596081E+01
DEBUG_STATS_RL:         GtNm1 (THERMODYNAMICS)  min= -5.76186691791668E-06
DEBUG_STATS_RL:         GtNm1 (THERMODYNAMICS)  max=  3.06566086811255E-06
DEBUG_STATS_RL:         GtNm1 (THERMODYNAMICS) mean=  2.50690224505548E-09
DEBUG_STATS_RL:         GtNm1 (THERMODYNAMICS) S.D.=  1.77689324842091E-07
DEBUG_STATS_RL:         GsNm1 (THERMODYNAMICS)  min= -5.84565667591201E-07
DEBUG_STATS_RL:         GsNm1 (THERMODYNAMICS)  max=  4.17027454933881E-07
DEBUG_STATS_RL:         GsNm1 (THERMODYNAMICS) mean= -4.37621214653469E-10
DEBUG_STATS_RL:         GsNm1 (THERMODYNAMICS) S.D.=  1.79456033549989E-08
DEBUG_STATS_RL:                EtaN (DYNAMICS)  min= -1.78408325287276E+00
DEBUG_STATS_RL:                EtaN (DYNAMICS)  max=  7.53818384202371E-01
DEBUG_STATS_RL:                EtaN (DYNAMICS) mean= -1.78264557437650E-01
DEBUG_STATS_RL:                EtaN (DYNAMICS) S.D.=  6.82783951107598E-01
DEBUG_STATS_RL:                Uvel (DYNAMICS)  min= -1.29042667068672E-01
DEBUG_STATS_RL:                Uvel (DYNAMICS)  max=  1.43846139647538E-01
DEBUG_STATS_RL:                Uvel (DYNAMICS) mean=  5.30200314449938E-03
DEBUG_STATS_RL:                Uvel (DYNAMICS) S.D.=  2.11547696067708E-02
DEBUG_STATS_RL:                Vvel (DYNAMICS)  min= -9.53710469609565E-02
DEBUG_STATS_RL:                Vvel (DYNAMICS)  max=  1.41961268867989E-01
DEBUG_STATS_RL:                Vvel (DYNAMICS) mean=  1.14310620612849E-03
DEBUG_STATS_RL:                Vvel (DYNAMICS) S.D.=  1.40912224653405E-02
DEBUG_STATS_RL:                Wvel (DYNAMICS)  min= -6.78517628311531E-05
DEBUG_STATS_RL:                Wvel (DYNAMICS)  max=  1.20630230214117E-04
DEBUG_STATS_RL:                Wvel (DYNAMICS) mean= -4.00658216953172E-08
DEBUG_STATS_RL:                Wvel (DYNAMICS) S.D.=  1.04665254445145E-05
DEBUG_STATS_RL:               Theta (DYNAMICS)  min= -1.96895495723799E+00
DEBUG_STATS_RL:               Theta (DYNAMICS)  max=  3.05266421506808E+01
DEBUG_STATS_RL:               Theta (DYNAMICS) mean=  3.22928956972743E+00
DEBUG_STATS_RL:               Theta (DYNAMICS) S.D.=  5.87670368743981E+00
DEBUG_STATS_RL:                Salt (DYNAMICS)  min=  9.99999999999997E-03
DEBUG_STATS_RL:                Salt (DYNAMICS)  max=  3.74762403758328E+01
DEBUG_STATS_RL:                Salt (DYNAMICS) mean=  1.88548556943038E+01
DEBUG_STATS_RL:                Salt (DYNAMICS) S.D.=  1.73003827596081E+01
DEBUG_STATS_RL:                  Gu (DYNAMICS)  min= -1.28519882532877E-01
DEBUG_STATS_RL:                  Gu (DYNAMICS)  max=  1.33715623851468E-01
DEBUG_STATS_RL:                  Gu (DYNAMICS) mean=  5.31091039449846E-03
DEBUG_STATS_RL:                  Gu (DYNAMICS) S.D.=  2.13469565741160E-02
DEBUG_STATS_RL:                  Gv (DYNAMICS)  min= -9.83848030186463E-02
DEBUG_STATS_RL:                  Gv (DYNAMICS)  max=  1.43556652908827E-01
DEBUG_STATS_RL:                  Gv (DYNAMICS) mean=  3.54075890204555E-03
DEBUG_STATS_RL:                  Gv (DYNAMICS) S.D.=  1.55580692663322E-02
DEBUG_STATS_RL:               GuNm1 (DYNAMICS)  min= -9.74161743889608E-06
DEBUG_STATS_RL:               GuNm1 (DYNAMICS)  max=  9.31798040778179E-06
DEBUG_STATS_RL:               GuNm1 (DYNAMICS) mean=  3.98323793683033E-09
DEBUG_STATS_RL:               GuNm1 (DYNAMICS) S.D.=  1.19403802987623E-06
DEBUG_STATS_RL:               GvNm1 (DYNAMICS)  min= -9.76742245443280E-06
DEBUG_STATS_RL:               GvNm1 (DYNAMICS)  max=  1.60169703999247E-05
DEBUG_STATS_RL:               GvNm1 (DYNAMICS) mean=  7.42291626983297E-07
DEBUG_STATS_RL:               GvNm1 (DYNAMICS) S.D.=  2.64102603899969E-06
DEBUG_STATS_RL:               GtNm1 (DYNAMICS)  min= -5.76186691791668E-06
DEBUG_STATS_RL:               GtNm1 (DYNAMICS)  max=  3.06566086811255E-06
DEBUG_STATS_RL:               GtNm1 (DYNAMICS) mean=  2.50690224505548E-09
DEBUG_STATS_RL:               GtNm1 (DYNAMICS) S.D.=  1.77689324842091E-07
DEBUG_STATS_RL:               GsNm1 (DYNAMICS)  min= -5.84565667591201E-07
DEBUG_STATS_RL:               GsNm1 (DYNAMICS)  max=  4.17027454933881E-07
DEBUG_STATS_RL:               GsNm1 (DYNAMICS) mean= -4.37621214653469E-10
DEBUG_STATS_RL:               GsNm1 (DYNAMICS) S.D.=  1.79456033549989E-08
DEBUG_STATS_RL:    cg2d_b (SOLVE_FOR_PRESSURE)  min= -2.01744490611888E+04
DEBUG_STATS_RL:    cg2d_b (SOLVE_FOR_PRESSURE)  max=  2.56305952602728E+04
DEBUG_STATS_RL:    cg2d_b (SOLVE_FOR_PRESSURE) mean=  4.21426751630475E+00
DEBUG_STATS_RL:    cg2d_b (SOLVE_FOR_PRESSURE) S.D.=  3.87243228444205E+03
 cg2d: Sum(rhs),rhsMax =   3.80639981287068E-01  1.68348612070947E+00
(PID.TID 0000.0001)  cg2d: iter=     1 ; resid.=  8.79074923355817E-02
(PID.TID 0000.0001)  cg2d: iter=     2 ; resid.=  6.48829924441481E-02
(PID.TID 0000.0001)  cg2d: iter=     3 ; resid.=  5.39240286603797E-02
(PID.TID 0000.0001)  cg2d: iter=     4 ; resid.=  4.50502485132824E-02
(PID.TID 0000.0001)  cg2d: iter=     5 ; resid.=  3.81655304694802E-02
(PID.TID 0000.0001)  cg2d: iter=     6 ; resid.=  2.79899215758964E-02
(PID.TID 0000.0001)  cg2d: iter=     7 ; resid.=  2.34148654697661E-02
(PID.TID 0000.0001)  cg2d: iter=     8 ; resid.=  2.06777052860800E-02
(PID.TID 0000.0001)  cg2d: iter=     9 ; resid.=  1.70319036042352E-02
(PID.TID 0000.0001)  cg2d: iter=    10 ; resid.=  1.57258500928366E-02
(PID.TID 0000.0001)  cg2d: iter=    11 ; resid.=  1.48410299822155E-02
(PID.TID 0000.0001)  cg2d: iter=    12 ; resid.=  1.28867166966380E-02
(PID.TID 0000.0001)  cg2d: iter=    13 ; resid.=  1.05640557476589E-02
(PID.TID 0000.0001)  cg2d: iter=    14 ; resid.=  8.77602119568584E-03
(PID.TID 0000.0001)  cg2d: iter=    15 ; resid.=  7.26153652770848E-03
(PID.TID 0000.0001)  cg2d: iter=    16 ; resid.=  6.34598191135717E-03
(PID.TID 0000.0001)  cg2d: iter=    17 ; resid.=  5.39360917832868E-03
(PID.TID 0000.0001)  cg2d: iter=    18 ; resid.=  4.55674424169001E-03
(PID.TID 0000.0001)  cg2d: iter=    19 ; resid.=  3.68386704930155E-03
(PID.TID 0000.0001)  cg2d: iter=    20 ; resid.=  2.98419846879545E-03
(PID.TID 0000.0001)  cg2d: iter=    21 ; resid.=  2.52666903391964E-03
(PID.TID 0000.0001)  cg2d: iter=    22 ; resid.=  2.26713330027478E-03
(PID.TID 0000.0001)  cg2d: iter=    23 ; resid.=  1.85683292536072E-03
(PID.TID 0000.0001)  cg2d: iter=    24 ; resid.=  1.58061571521435E-03
(PID.TID 0000.0001)  cg2d: iter=    25 ; resid.=  1.31512782601407E-03
(PID.TID 0000.0001)  cg2d: iter=    26 ; resid.=  1.03827014942242E-03
(PID.TID 0000.0001)  cg2d: iter=    27 ; resid.=  9.06955903072813E-04
(PID.TID 0000.0001)  cg2d: iter=    28 ; resid.=  7.75566109087071E-04
(PID.TID 0000.0001)  cg2d: iter=    29 ; resid.=  6.77537281148848E-04
(PID.TID 0000.0001)  cg2d: iter=    30 ; resid.=  5.44337417505915E-04
(PID.TID 0000.0001)  cg2d: iter=    31 ; resid.=  4.65273125851014E-04
(PID.TID 0000.0001)  cg2d: iter=    32 ; resid.=  3.64614042188439E-04
(PID.TID 0000.0001)  cg2d: iter=    33 ; resid.=  2.93443574878652E-04
(PID.TID 0000.0001)  cg2d: iter=    34 ; resid.=  2.63308656164485E-04
(PID.TID 0000.0001)  cg2d: iter=    35 ; resid.=  2.12453471480219E-04
(PID.TID 0000.0001)  cg2d: iter=    36 ; resid.=  1.72665990346828E-04
(PID.TID 0000.0001)  cg2d: iter=    37 ; resid.=  1.30323826280877E-04
(PID.TID 0000.0001)  cg2d: iter=    38 ; resid.=  1.00390564984242E-04
(PID.TID 0000.0001)  cg2d: iter=    39 ; resid.=  7.99150867477770E-05
(PID.TID 0000.0001)  cg2d: iter=    40 ; resid.=  6.65474138738782E-05
(PID.TID 0000.0001)  cg2d: iter=    41 ; resid.=  5.89043708962744E-05
(PID.TID 0000.0001)  cg2d: iter=    42 ; resid.=  5.55940315557681E-05
(PID.TID 0000.0001)  cg2d: iter=    43 ; resid.=  4.86017141949937E-05
(PID.TID 0000.0001)  cg2d: iter=    44 ; resid.=  4.01884638422597E-05
(PID.TID 0000.0001)  cg2d: iter=    45 ; resid.=  3.21474856356434E-05
(PID.TID 0000.0001)  cg2d: iter=    46 ; resid.=  2.51902129979636E-05
(PID.TID 0000.0001)  cg2d: iter=    47 ; resid.=  2.02578996144607E-05
(PID.TID 0000.0001)  cg2d: iter=    48 ; resid.=  1.67423918739318E-05
(PID.TID 0000.0001)  cg2d: iter=    49 ; resid.=  1.36554776609003E-05
(PID.TID 0000.0001)  cg2d: iter=    50 ; resid.=  1.05423888491951E-05
(PID.TID 0000.0001)  cg2d: iter=    51 ; resid.=  8.13930237042225E-06
(PID.TID 0000.0001)  cg2d: iter=    52 ; resid.=  6.24845696016875E-06
(PID.TID 0000.0001)  cg2d: iter=    53 ; resid.=  5.19485449887520E-06
(PID.TID 0000.0001)  cg2d: iter=    54 ; resid.=  4.35372130646659E-06
(PID.TID 0000.0001)  cg2d: iter=    55 ; resid.=  3.74650826360482E-06
(PID.TID 0000.0001)  cg2d: iter=    56 ; resid.=  3.31096069003553E-06
(PID.TID 0000.0001)  cg2d: iter=    57 ; resid.=  2.86628262257684E-06
(PID.TID 0000.0001)  cg2d: iter=    58 ; resid.=  2.31631915722950E-06
(PID.TID 0000.0001)  cg2d: iter=    59 ; resid.=  1.79936124019872E-06
(PID.TID 0000.0001)  cg2d: iter=    60 ; resid.=  1.34855939966074E-06
(PID.TID 0000.0001)  cg2d: iter=    61 ; resid.=  1.04990738671914E-06
(PID.TID 0000.0001)  cg2d: iter=    62 ; resid.=  8.76046839738813E-07
(PID.TID 0000.0001)  cg2d: iter=    63 ; resid.=  6.79714727828089E-07
(PID.TID 0000.0001)  cg2d: iter=    64 ; resid.=  5.41442634856575E-07
(PID.TID 0000.0001)  cg2d: iter=    65 ; resid.=  4.18222112172836E-07
(PID.TID 0000.0001)  cg2d: iter=    66 ; resid.=  3.28981757029004E-07
(PID.TID 0000.0001)  cg2d: iter=    67 ; resid.=  2.85411893691898E-07
(PID.TID 0000.0001)  cg2d: iter=    68 ; resid.=  2.39288487970633E-07
(PID.TID 0000.0001)  cg2d: iter=    69 ; resid.=  2.02873108402685E-07
(PID.TID 0000.0001)  cg2d: iter=    70 ; resid.=  1.60014960502510E-07
(PID.TID 0000.0001)  cg2d: iter=    71 ; resid.=  1.35111421558293E-07
(PID.TID 0000.0001)  cg2d: iter=    72 ; resid.=  1.09777254066058E-07
(PID.TID 0000.0001)  cg2d: iter=    73 ; resid.=  9.26980436741588E-08
(PID.TID 0000.0001)  cg2d: iter=    74 ; resid.=  7.41227643241846E-08
(PID.TID 0000.0001)  cg2d: iter=    75 ; resid.=  5.67534762222856E-08
(PID.TID 0000.0001)  cg2d: iter=    76 ; resid.=  4.54981768778307E-08
(PID.TID 0000.0001)  cg2d: iter=    77 ; resid.=  3.68066032317533E-08
(PID.TID 0000.0001)  cg2d: iter=    78 ; resid.=  3.27268013923876E-08
(PID.TID 0000.0001)  cg2d: iter=    79 ; resid.=  3.02829260098564E-08
(PID.TID 0000.0001)  cg2d: iter=    80 ; resid.=  2.77519761499503E-08
(PID.TID 0000.0001)  cg2d: iter=    81 ; resid.=  2.52186261733531E-08
(PID.TID 0000.0001)  cg2d: iter=    82 ; resid.=  2.19760536423527E-08
(PID.TID 0000.0001)  cg2d: iter=    83 ; resid.=  1.86719985535621E-08
(PID.TID 0000.0001)  cg2d: iter=    84 ; resid.=  1.41260391768099E-08
(PID.TID 0000.0001)  cg2d: iter=    85 ; resid.=  9.80246405033908E-09
(PID.TID 0000.0001)  cg2d: iter=    86 ; resid.=  7.35848647119025E-09
(PID.TID 0000.0001)  cg2d: iter=    87 ; resid.=  5.67655690480943E-09
(PID.TID 0000.0001)  cg2d: iter=    88 ; resid.=  4.31227027078844E-09
(PID.TID 0000.0001)  cg2d: iter=    89 ; resid.=  3.21499015822376E-09
(PID.TID 0000.0001)  cg2d: iter=    90 ; resid.=  2.88309281006749E-09
(PID.TID 0000.0001)  cg2d: iter=    91 ; resid.=  2.48341349252938E-09
(PID.TID 0000.0001)  cg2d: iter=    92 ; resid.=  1.90532110445145E-09
(PID.TID 0000.0001)  cg2d: iter=    93 ; resid.=  1.46398883582273E-09
(PID.TID 0000.0001)  cg2d: iter=    94 ; resid.=  1.14769364152160E-09
(PID.TID 0000.0001)  cg2d: iter=    95 ; resid.=  1.00297367308272E-09
(PID.TID 0000.0001)  cg2d: iter=    96 ; resid.=  8.27561223842987E-10
(PID.TID 0000.0001)  cg2d: iter=    97 ; resid.=  5.65683135655735E-10
(PID.TID 0000.0001)  cg2d: iter=    98 ; resid.=  4.39175659416221E-10
(PID.TID 0000.0001)  cg2d: iter=    99 ; resid.=  3.44710354667716E-10
(PID.TID 0000.0001)  cg2d: iter=   100 ; resid.=  3.10958097839711E-10
(PID.TID 0000.0001)  cg2d: iter=   101 ; resid.=  2.63999329473694E-10
(PID.TID 0000.0001)  cg2d: iter=   102 ; resid.=  2.15217973196974E-10
(PID.TID 0000.0001)  cg2d: iter=   103 ; resid.=  1.80918806300405E-10
(PID.TID 0000.0001)  cg2d: iter=   104 ; resid.=  1.53793409527167E-10
(PID.TID 0000.0001)  cg2d: iter=   105 ; resid.=  1.28809791227025E-10
(PID.TID 0000.0001)  cg2d: iter=   106 ; resid.=  1.03050894795976E-10
(PID.TID 0000.0001)  cg2d: iter=   107 ; resid.=  7.93886955901980E-11
(PID.TID 0000.0001)  cg2d: iter=   108 ; resid.=  6.45295618643265E-11
(PID.TID 0000.0001)  cg2d: iter=   109 ; resid.=  4.90043848853334E-11
(PID.TID 0000.0001)  cg2d: iter=   110 ; resid.=  4.00134305040885E-11
(PID.TID 0000.0001)  cg2d: iter=   111 ; resid.=  2.90756132618514E-11
(PID.TID 0000.0001)  cg2d: iter=   112 ; resid.=  2.16943067257511E-11
(PID.TID 0000.0001)  cg2d: iter=   113 ; resid.=  1.62593829437001E-11
(PID.TID 0000.0001)  cg2d: iter=   114 ; resid.=  1.23311734309219E-11
(PID.TID 0000.0001)  cg2d: iter=   115 ; resid.=  9.48877977130772E-12
(PID.TID 0000.0001)  cg2d: iter=   116 ; resid.=  7.16412694651491E-12
(PID.TID 0000.0001)  cg2d: iter=   117 ; resid.=  5.37395615666281E-12
(PID.TID 0000.0001)  cg2d: iter=   118 ; resid.=  4.09588799584690E-12
(PID.TID 0000.0001)  cg2d: iter=   119 ; resid.=  2.88051921258514E-12
(PID.TID 0000.0001)  cg2d: iter=   120 ; resid.=  2.04446609212840E-12
(PID.TID 0000.0001)  cg2d: iter=   121 ; resid.=  1.54880542213372E-12
(PID.TID 0000.0001)  cg2d: iter=   122 ; resid.=  1.19211621396283E-12
(PID.TID 0000.0001)  cg2d: iter=   123 ; resid.=  1.04847764122012E-12
(PID.TID 0000.0001)  cg2d: iter=   124 ; resid.=  8.14536511792966E-13
(PID.TID 0000.0001)  cg2d: iter=   125 ; resid.=  6.39970243080944E-13
(PID.TID 0000.0001)  cg2d: iter=   126 ; resid.=  4.45132675712821E-13
(PID.TID 0000.0001)  cg2d: iter=   127 ; resid.=  3.37509549303105E-13
(PID.TID 0000.0001)  cg2d: iter=   128 ; resid.=  2.61180823075356E-13
(PID.TID 0000.0001)  cg2d: iter=   129 ; resid.=  1.86406997450082E-13
(PID.TID 0000.0001)  cg2d: iter=   130 ; resid.=  1.47516796486462E-13
(PID.TID 0000.0001)  cg2d: iter=   131 ; resid.=  1.03508700687349E-13
(PID.TID 0000.0001)  cg2d: iter=   132 ; resid.=  7.65520059777219E-14
DEBUG_STATS_RL:    cg2d_x (SOLVE_FOR_PRESSURE)  min= -1.76611901517903E+01
DEBUG_STATS_RL:    cg2d_x (SOLVE_FOR_PRESSURE)  max=  7.36280973944478E+00
DEBUG_STATS_RL:    cg2d_x (SOLVE_FOR_PRESSURE) mean= -1.74984511611742E+00
DEBUG_STATS_RL:    cg2d_x (SOLVE_FOR_PRESSURE) S.D.=  6.72835481974141E+00
(PID.TID 0000.0001)      cg2d_init_res =   2.68098196245477E-01
(PID.TID 0000.0001)      cg2d_iters(min,last) =      -1     132
(PID.TID 0000.0001)      cg2d_last_res =   7.65520059777219E-14
(PID.TID 0000.0001) // =======================================================
(PID.TID 0000.0001) // Begin MONITOR dynamic field statistics
(PID.TID 0000.0001) // =======================================================
(PID.TID 0000.0001) %MON time_tsnumber                =                    59
(PID.TID 0000.0001) %MON time_secondsf                =   5.0976000000000E+06
(PID.TID 0000.0001) %MON dynstat_eta_max              =   7.5054125784353E-01
(PID.TID 0000.0001) %MON dynstat_eta_min              =  -1.8003251938624E+00
(PID.TID 0000.0001) %MON dynstat_eta_mean             =  -4.3970656013441E-03
(PID.TID 0000.0001) %MON dynstat_eta_sd               =   5.8704806033751E-01
(PID.TID 0000.0001) %MON dynstat_eta_del2             =   2.3636968124884E-03
(PID.TID 0000.0001) %MON dynstat_uvel_max             =   1.3818743284331E-01
(PID.TID 0000.0001) %MON dynstat_uvel_min             =  -1.2827484224774E-01
(PID.TID 0000.0001) %MON dynstat_uvel_mean            =   2.0485928700715E-03
(PID.TID 0000.0001) %MON dynstat_uvel_sd              =   1.3639243723890E-02
(PID.TID 0000.0001) %MON dynstat_uvel_del2            =   8.4009409452638E-05
(PID.TID 0000.0001) %MON dynstat_vvel_max             =   1.4083300938744E-01
(PID.TID 0000.0001) %MON dynstat_vvel_min             =  -9.5869639463186E-02
(PID.TID 0000.0001) %MON dynstat_vvel_mean            =   8.6642137878852E-05
(PID.TID 0000.0001) %MON dynstat_vvel_sd              =   8.7650338506243E-03
(PID.TID 0000.0001) %MON dynstat_vvel_del2            =   7.2987866642399E-05
(PID.TID 0000.0001) %MON dynstat_wvel_max             =   1.0870165879205E-04
(PID.TID 0000.0001) %MON dynstat_wvel_min             =  -6.6743604029745E-05
(PID.TID 0000.0001) %MON dynstat_wvel_mean            =  -8.5784091583446E-24
(PID.TID 0000.0001) %MON dynstat_wvel_sd              =   1.1786336957985E-05
(PID.TID 0000.0001) %MON dynstat_wvel_del2            =   1.2164408751715E-07
(PID.TID 0000.0001) %MON dynstat_theta_max            =   3.0526642150681E+01
(PID.TID 0000.0001) %MON dynstat_theta_min            =  -1.9689549572380E+00
(PID.TID 0000.0001) %MON dynstat_theta_mean           =   3.6331894825988E+00
(PID.TID 0000.0001) %MON dynstat_theta_sd             =   4.4234793167418E+00
(PID.TID 0000.0001) %MON dynstat_theta_del2           =   4.8816516555641E-03
(PID.TID 0000.0001) %MON dynstat_salt_max             =   3.7476240375833E+01
(PID.TID 0000.0001) %MON dynstat_salt_min             =   2.9878929098274E+01
(PID.TID 0000.0001) %MON dynstat_salt_mean            =   3.4727981445165E+01
(PID.TID 0000.0001) %MON dynstat_salt_sd              =   2.9642251197515E-01
(PID.TID 0000.0001) %MON dynstat_salt_del2            =   9.8941058452246E-04
(PID.TID 0000.0001) %MON dynstat_sst_max              =   3.0526642150681E+01
(PID.TID 0000.0001) %MON dynstat_sst_min              =  -1.9689549572380E+00
(PID.TID 0000.0001) %MON dynstat_sst_mean             =   1.8992718407420E+01
(PID.TID 0000.0001) %MON dynstat_sst_sd               =   9.0591662825841E+00
(PID.TID 0000.0001) %MON dynstat_sst_del2             =   2.7925433775814E-02
(PID.TID 0000.0001) %MON dynstat_sss_max              =   3.7455208211738E+01
(PID.TID 0000.0001) %MON dynstat_sss_min              =   2.9878929098274E+01
(PID.TID 0000.0001) %MON dynstat_sss_mean             =   3.4850738828497E+01
(PID.TID 0000.0001) %MON dynstat_sss_sd               =   9.8026933406389E-01
(PID.TID 0000.0001) %MON dynstat_sss_del2             =   7.9872866112983E-03
(PID.TID 0000.0001) %MON forcing_qnet_max             =   3.2207626851400E+02
(PID.TID 0000.0001) %MON forcing_qnet_min             =  -1.6894333852132E+02
(PID.TID 0000.0001) %MON forcing_qnet_mean            =  -1.1061837483797E+01
(PID.TID 0000.0001) %MON forcing_qnet_sd              =   6.2224367755894E+01
(PID.TID 0000.0001) %MON forcing_qnet_del2            =   8.8801072466035E-01
(PID.TID 0000.0001) %MON forcing_qsw_max              =   0.0000000000000E+00
(PID.TID 0000.0001) %MON forcing_qsw_min              =   0.0000000000000E+00
(PID.TID 0000.0001) %MON forcing_qsw_mean             =   0.0000000000000E+00
(PID.TID 0000.0001) %MON forcing_qsw_sd               =   0.0000000000000E+00
(PID.TID 0000.0001) %MON forcing_qsw_del2             =   0.0000000000000E+00
(PID.TID 0000.0001) %MON forcing_empmr_max            =   6.9206679616703E-05
(PID.TID 0000.0001) %MON forcing_empmr_min            =  -7.6478364500569E-05
(PID.TID 0000.0001) %MON forcing_empmr_mean           =   7.7323987854276E-07
(PID.TID 0000.0001) %MON forcing_empmr_sd             =   2.6990094911657E-05
(PID.TID 0000.0001) %MON forcing_empmr_del2           =   3.5359407078538E-07
(PID.TID 0000.0001) %MON forcing_fu_max               =   3.2454732954502E-01
(PID.TID 0000.0001) %MON forcing_fu_min               =  -2.8573253403107E-01
(PID.TID 0000.0001) %MON forcing_fu_mean              =   1.8855336279595E-02
(PID.TID 0000.0001) %MON forcing_fu_sd                =   9.4747636482451E-02
(PID.TID 0000.0001) %MON forcing_fu_del2              =   7.0862449984251E-04
(PID.TID 0000.0001) %MON forcing_fv_max               =   1.5510848760605E-01
(PID.TID 0000.0001) %MON forcing_fv_min               =  -1.8036078512669E-01
(PID.TID 0000.0001) %MON forcing_fv_mean              =  -7.3522934905635E-03
(PID.TID 0000.0001) %MON forcing_fv_sd                =   4.2103479761575E-02
(PID.TID 0000.0001) %MON forcing_fv_del2              =   4.7196348005752E-04
(PID.TID 0000.0001) %MON trAdv_CFL_u_max              =   3.7614033221587E-02
(PID.TID 0000.0001) %MON trAdv_CFL_v_max              =   2.7399835665500E-02
(PID.TID 0000.0001) %MON trAdv_CFL_w_max              =   2.8117037100989E-02
(PID.TID 0000.0001) %MON advcfl_uvel_max              =   3.7002893735544E-02
(PID.TID 0000.0001) %MON advcfl_vvel_max              =   2.7361595034061E-02
(PID.TID 0000.0001) %MON advcfl_wvel_max              =   3.1335771221388E-02
(PID.TID 0000.0001) %MON advcfl_W_hf_max              =   3.8050579340256E-02
(PID.TID 0000.0001) %MON pe_b_mean                    =   4.4101451057367E-04
(PID.TID 0000.0001) %MON ke_max                       =   1.4335631748969E-02
(PID.TID 0000.0001) %MON ke_mean                      =   1.2091626305646E-04
(PID.TID 0000.0001) %MON ke_vol                       =   1.3226782436723E+18
(PID.TID 0000.0001) %MON vort_r_min                   =  -4.0953902636202E-07
(PID.TID 0000.0001) %MON vort_r_max                   =   4.2875805986285E-07
(PID.TID 0000.0001) %MON vort_a_mean                  =  -2.5274807372941E-05
(PID.TID 0000.0001) %MON vort_a_sd                    =   7.3604581800610E-05
(PID.TID 0000.0001) %MON vort_p_mean                  =  -3.1845655768590E-05
(PID.TID 0000.0001) %MON vort_p_sd                    =   1.3162454628360E-04
(PID.TID 0000.0001) %MON surfExpan_theta_mean         =   1.0169751577818E-07
(PID.TID 0000.0001) %MON surfExpan_salt_mean          =   2.6527175648503E-08
(PID.TID 0000.0001) // =======================================================
(PID.TID 0000.0001) // End MONITOR dynamic field statistics
(PID.TID 0000.0001) // =======================================================
 EXTERNAL_FIELDS_LOAD,        59 : iP,iLd,i0,i1=    2    3    2    3 ; Wght=  0.5333333333  0.4666666667
 EXTERNAL_FIELDS_LOAD: (fu0,1),fu,fv= -1.4435E-02 -2.7199E-02 -2.0391E-02 -9.6754E-03
 EXTERNAL_FIELDS_LOAD: SST,SSS,Q,E-P= -3.6948E-01  3.4495E+01  2.2877E+02  8.7055E-06
DEBUG_STATS_RL:          Uvel (THERMODYNAMICS)  min= -1.28274842247738E-01
DEBUG_STATS_RL:          Uvel (THERMODYNAMICS)  max=  1.38187432843309E-01
DEBUG_STATS_RL:          Uvel (THERMODYNAMICS) mean=  5.37595424600539E-03
DEBUG_STATS_RL:          Uvel (THERMODYNAMICS) S.D.=  2.10199693558023E-02
DEBUG_STATS_RL:          Vvel (THERMODYNAMICS)  min= -9.58696394631859E-02
DEBUG_STATS_RL:          Vvel (THERMODYNAMICS)  max=  1.40833009387437E-01
DEBUG_STATS_RL:          Vvel (THERMODYNAMICS) mean=  1.02817968691785E-03
DEBUG_STATS_RL:          Vvel (THERMODYNAMICS) S.D.=  1.40538745008039E-02
DEBUG_STATS_RL:          Wvel (THERMODYNAMICS)  min= -6.67436040297450E-05
DEBUG_STATS_RL:          Wvel (THERMODYNAMICS)  max=  1.08701658792048E-04
DEBUG_STATS_RL:          Wvel (THERMODYNAMICS) mean= -6.25982340000253E-08
DEBUG_STATS_RL:          Wvel (THERMODYNAMICS) S.D.=  1.03832383092260E-05
DEBUG_STATS_RL:         Theta (THERMODYNAMICS)  min= -1.96739199115824E+00
DEBUG_STATS_RL:         Theta (THERMODYNAMICS)  max=  3.05507558592143E+01
DEBUG_STATS_RL:         Theta (THERMODYNAMICS) mean=  3.22940697050685E+00
DEBUG_STATS_RL:         Theta (THERMODYNAMICS) S.D.=  5.87719342867719E+00
DEBUG_STATS_RL:          Salt (THERMODYNAMICS)  min=  9.99999999999997E-03
DEBUG_STATS_RL:          Salt (THERMODYNAMICS)  max=  3.74766222551341E+01
DEBUG_STATS_RL:          Salt (THERMODYNAMICS) mean=  1.88548390040323E+01
DEBUG_STATS_RL:          Salt (THERMODYNAMICS) S.D.=  1.73003679415370E+01
DEBUG_STATS_RL:         GtNm1 (THERMODYNAMICS)  min= -5.60958972352911E-06
DEBUG_STATS_RL:         GtNm1 (THERMODYNAMICS)  max=  2.96957565464754E-06
DEBUG_STATS_RL:         GtNm1 (THERMODYNAMICS) mean=  2.60711258997340E-09
DEBUG_STATS_RL:         GtNm1 (THERMODYNAMICS) S.D.=  1.75703152934041E-07
DEBUG_STATS_RL:         GsNm1 (THERMODYNAMICS)  min= -5.54264855119260E-07
DEBUG_STATS_RL:         GsNm1 (THERMODYNAMICS)  max=  4.88324179895964E-07
DEBUG_STATS_RL:         GsNm1 (THERMODYNAMICS) mean= -4.58778838349828E-10
DEBUG_STATS_RL:         GsNm1 (THERMODYNAMICS) S.D.=  1.79891953845228E-08
DEBUG_STATS_RL:                EtaN (DYNAMICS)  min= -1.80032519386242E+00
DEBUG_STATS_RL:                EtaN (DYNAMICS)  max=  7.50541257843529E-01
DEBUG_STATS_RL:                EtaN (DYNAMICS) mean= -1.78373610205650E-01
DEBUG_STATS_RL:                EtaN (DYNAMICS) S.D.=  6.85866954102081E-01
DEBUG_STATS_RL:                Uvel (DYNAMICS)  min= -1.28274842247738E-01
DEBUG_STATS_RL:                Uvel (DYNAMICS)  max=  1.38187432843309E-01
DEBUG_STATS_RL:                Uvel (DYNAMICS) mean=  5.37595424600539E-03
DEBUG_STATS_RL:                Uvel (DYNAMICS) S.D.=  2.10199693558023E-02
DEBUG_STATS_RL:                Vvel (DYNAMICS)  min= -9.58696394631859E-02
DEBUG_STATS_RL:                Vvel (DYNAMICS)  max=  1.40833009387437E-01
DEBUG_STATS_RL:                Vvel (DYNAMICS) mean=  1.02817968691785E-03
DEBUG_STATS_RL:                Vvel (DYNAMICS) S.D.=  1.40538745008039E-02
DEBUG_STATS_RL:                Wvel (DYNAMICS)  min= -6.67436040297450E-05
DEBUG_STATS_RL:                Wvel (DYNAMICS)  max=  1.08701658792048E-04
DEBUG_STATS_RL:                Wvel (DYNAMICS) mean= -6.25982340000253E-08
DEBUG_STATS_RL:                Wvel (DYNAMICS) S.D.=  1.03832383092260E-05
DEBUG_STATS_RL:               Theta (DYNAMICS)  min= -1.96739199115824E+00
DEBUG_STATS_RL:               Theta (DYNAMICS)  max=  3.05507558592143E+01
DEBUG_STATS_RL:               Theta (DYNAMICS) mean=  3.22940697050685E+00
DEBUG_STATS_RL:               Theta (DYNAMICS) S.D.=  5.87719342867719E+00
DEBUG_STATS_RL:                Salt (DYNAMICS)  min=  9.99999999999997E-03
DEBUG_STATS_RL:                Salt (DYNAMICS)  max=  3.74766222551341E+01
DEBUG_STATS_RL:                Salt (DYNAMICS) mean=  1.88548390040323E+01
DEBUG_STATS_RL:                Salt (DYNAMICS) S.D.=  1.73003679415370E+01
DEBUG_STATS_RL:                  Gu (DYNAMICS)  min= -1.27967640025780E-01
DEBUG_STATS_RL:                  Gu (DYNAMICS)  max=  1.27707739675724E-01
DEBUG_STATS_RL:                  Gu (DYNAMICS) mean=  5.37973826085335E-03
DEBUG_STATS_RL:                  Gu (DYNAMICS) S.D.=  2.12762382944685E-02
DEBUG_STATS_RL:                  Gv (DYNAMICS)  min= -9.86284511776502E-02
DEBUG_STATS_RL:                  Gv (DYNAMICS)  max=  1.42223379392036E-01
DEBUG_STATS_RL:                  Gv (DYNAMICS) mean=  3.45560213077386E-03
DEBUG_STATS_RL:                  Gv (DYNAMICS) S.D.=  1.54621616546713E-02
DEBUG_STATS_RL:               GuNm1 (DYNAMICS)  min= -9.76995792352440E-06
DEBUG_STATS_RL:               GuNm1 (DYNAMICS)  max=  9.33526616373339E-06
DEBUG_STATS_RL:               GuNm1 (DYNAMICS) mean=  4.38750655783250E-09
DEBUG_STATS_RL:               GuNm1 (DYNAMICS) S.D.=  1.19491201734817E-06
DEBUG_STATS_RL:               GvNm1 (DYNAMICS)  min= -9.83718014158265E-06
DEBUG_STATS_RL:               GvNm1 (DYNAMICS)  max=  1.59596507325423E-05
DEBUG_STATS_RL:               GvNm1 (DYNAMICS) mean=  7.41797284898982E-07
DEBUG_STATS_RL:               GvNm1 (DYNAMICS) S.D.=  2.64307990113448E-06
DEBUG_STATS_RL:               GtNm1 (DYNAMICS)  min= -5.60958972352911E-06
DEBUG_STATS_RL:               GtNm1 (DYNAMICS)  max=  2.96957565464754E-06
DEBUG_STATS_RL:               GtNm1 (DYNAMICS) mean=  2.60711258997340E-09
DEBUG_STATS_RL:               GtNm1 (DYNAMICS) S.D.=  1.75703152934041E-07
DEBUG_STATS_RL:               GsNm1 (DYNAMICS)  min= -5.54264855119260E-07
DEBUG_STATS_RL:               GsNm1 (DYNAMICS)  max=  4.88324179895964E-07
DEBUG_STATS_RL:               GsNm1 (DYNAMICS) mean= -4.58778838349828E-10
DEBUG_STATS_RL:               GsNm1 (DYNAMICS) S.D.=  1.79891953845228E-08
DEBUG_STATS_RL:    cg2d_b (SOLVE_FOR_PRESSURE)  min= -2.00904669390931E+04
DEBUG_STATS_RL:    cg2d_b (SOLVE_FOR_PRESSURE)  max=  2.55890664706478E+04
DEBUG_STATS_RL:    cg2d_b (SOLVE_FOR_PRESSURE) mean=  4.27508547203983E+00
DEBUG_STATS_RL:    cg2d_b (SOLVE_FOR_PRESSURE) S.D.=  3.88464518469734E+03
 cg2d: Sum(rhs),rhsMax =   3.86759824908987E-01  1.68075839861665E+00
(PID.TID 0000.0001)  cg2d: iter=     1 ; resid.=  8.67274148283226E-02
(PID.TID 0000.0001)  cg2d: iter=     2 ; resid.=  6.51308877106302E-02
(PID.TID 0000.0001)  cg2d: iter=     3 ; resid.=  5.45098198737958E-02
(PID.TID 0000.0001)  cg2d: iter=     4 ; resid.=  4.68795456889073E-02
(PID.TID 0000.0001)  cg2d: iter=     5 ; resid.=  3.94319789561138E-02
(PID.TID 0000.0001)  cg2d: iter=     6 ; resid.=  2.86169563908779E-02
(PID.TID 0000.0001)  cg2d: iter=     7 ; resid.=  2.40161472490735E-02
(PID.TID 0000.0001)  cg2d: iter=     8 ; resid.=  2.20174443617649E-02
(PID.TID 0000.0001)  cg2d: iter=     9 ; resid.=  1.87839424894897E-02
(PID.TID 0000.0001)  cg2d: iter=    10 ; resid.=  1.73772104420441E-02
(PID.TID 0000.0001)  cg2d: iter=    11 ; resid.=  1.59271056490330E-02
(PID.TID 0000.0001)  cg2d: iter=    12 ; resid.=  1.34451200577295E-02
(PID.TID 0000.0001)  cg2d: iter=    13 ; resid.=  1.09526184613469E-02
(PID.TID 0000.0001)  cg2d: iter=    14 ; resid.=  9.02665411825692E-03
(PID.TID 0000.0001)  cg2d: iter=    15 ; resid.=  7.49122936722311E-03
(PID.TID 0000.0001)  cg2d: iter=    16 ; resid.=  6.34990116058899E-03
(PID.TID 0000.0001)  cg2d: iter=    17 ; resid.=  5.30070453693505E-03
(PID.TID 0000.0001)  cg2d: iter=    18 ; resid.=  4.36442730637698E-03
(PID.TID 0000.0001)  cg2d: iter=    19 ; resid.=  3.52059962692245E-03
(PID.TID 0000.0001)  cg2d: iter=    20 ; resid.=  2.92898591761191E-03
(PID.TID 0000.0001)  cg2d: iter=    21 ; resid.=  2.56679152033474E-03
(PID.TID 0000.0001)  cg2d: iter=    22 ; resid.=  2.32585542726788E-03
(PID.TID 0000.0001)  cg2d: iter=    23 ; resid.=  1.90650092383786E-03
(PID.TID 0000.0001)  cg2d: iter=    24 ; resid.=  1.62173426554652E-03
(PID.TID 0000.0001)  cg2d: iter=    25 ; resid.=  1.36181363563409E-03
(PID.TID 0000.0001)  cg2d: iter=    26 ; resid.=  1.09393722139488E-03
(PID.TID 0000.0001)  cg2d: iter=    27 ; resid.=  9.56615975049064E-04
(PID.TID 0000.0001)  cg2d: iter=    28 ; resid.=  8.17095715538689E-04
(PID.TID 0000.0001)  cg2d: iter=    29 ; resid.=  7.11188141982471E-04
(PID.TID 0000.0001)  cg2d: iter=    30 ; resid.=  5.63806603129828E-04
(PID.TID 0000.0001)  cg2d: iter=    31 ; resid.=  4.75996132218862E-04
(PID.TID 0000.0001)  cg2d: iter=    32 ; resid.=  3.67972709870890E-04
(PID.TID 0000.0001)  cg2d: iter=    33 ; resid.=  2.97840295768794E-04
(PID.TID 0000.0001)  cg2d: iter=    34 ; resid.=  2.65690677790153E-04
(PID.TID 0000.0001)  cg2d: iter=    35 ; resid.=  2.13084538598552E-04
(PID.TID 0000.0001)  cg2d: iter=    36 ; resid.=  1.71187734117319E-04
(PID.TID 0000.0001)  cg2d: iter=    37 ; resid.=  1.27888368060984E-04
(PID.TID 0000.0001)  cg2d: iter=    38 ; resid.=  9.79267001575633E-05
(PID.TID 0000.0001)  cg2d: iter=    39 ; resid.=  7.78662645996206E-05
(PID.TID 0000.0001)  cg2d: iter=    40 ; resid.=  6.38363030081466E-05
(PID.TID 0000.0001)  cg2d: iter=    41 ; resid.=  5.58143191108674E-05
(PID.TID 0000.0001)  cg2d: iter=    42 ; resid.=  5.34567920390827E-05
(PID.TID 0000.0001)  cg2d: iter=    43 ; resid.=  4.82613359736203E-05
(PID.TID 0000.0001)  cg2d: iter=    44 ; resid.=  4.12583467780790E-05
(PID.TID 0000.0001)  cg2d: iter=    45 ; resid.=  3.49318242957808E-05
(PID.TID 0000.0001)  cg2d: iter=    46 ; resid.=  2.92305352045373E-05
(PID.TID 0000.0001)  cg2d: iter=    47 ; resid.=  2.43661875963176E-05
(PID.TID 0000.0001)  cg2d: iter=    48 ; resid.=  2.05165254017383E-05
(PID.TID 0000.0001)  cg2d: iter=    49 ; resid.=  1.69068410437158E-05
(PID.TID 0000.0001)  cg2d: iter=    50 ; resid.=  1.31825509077699E-05
(PID.TID 0000.0001)  cg2d: iter=    51 ; resid.=  1.01428316868063E-05
(PID.TID 0000.0001)  cg2d: iter=    52 ; resid.=  7.56978279281551E-06
(PID.TID 0000.0001)  cg2d: iter=    53 ; resid.=  6.23317552620316E-06
(PID.TID 0000.0001)  cg2d: iter=    54 ; resid.=  5.14808224507260E-06
(PID.TID 0000.0001)  cg2d: iter=    55 ; resid.=  4.38003970043017E-06
(PID.TID 0000.0001)  cg2d: iter=    56 ; resid.=  3.66788227585818E-06
(PID.TID 0000.0001)  cg2d: iter=    57 ; resid.=  3.00830949445723E-06
(PID.TID 0000.0001)  cg2d: iter=    58 ; resid.=  2.38370732313908E-06
(PID.TID 0000.0001)  cg2d: iter=    59 ; resid.=  1.80360611397136E-06
(PID.TID 0000.0001)  cg2d: iter=    60 ; resid.=  1.34274233179022E-06
(PID.TID 0000.0001)  cg2d: iter=    61 ; resid.=  1.05410990787533E-06
(PID.TID 0000.0001)  cg2d: iter=    62 ; resid.=  8.67606889447389E-07
(PID.TID 0000.0001)  cg2d: iter=    63 ; resid.=  6.82420108103559E-07
(PID.TID 0000.0001)  cg2d: iter=    64 ; resid.=  5.48262839158087E-07
(PID.TID 0000.0001)  cg2d: iter=    65 ; resid.=  4.41534515156102E-07
(PID.TID 0000.0001)  cg2d: iter=    66 ; resid.=  3.69198276026946E-07
(PID.TID 0000.0001)  cg2d: iter=    67 ; resid.=  3.41149973428055E-07
(PID.TID 0000.0001)  cg2d: iter=    68 ; resid.=  3.11434890680286E-07
(PID.TID 0000.0001)  cg2d: iter=    69 ; resid.=  2.78662916152702E-07
(PID.TID 0000.0001)  cg2d: iter=    70 ; resid.=  2.27493190869340E-07
(PID.TID 0000.0001)  cg2d: iter=    71 ; resid.=  1.98109953383478E-07
(PID.TID 0000.0001)  cg2d: iter=    72 ; resid.=  1.62553180378147E-07
(PID.TID 0000.0001)  cg2d: iter=    73 ; resid.=  1.33461641265137E-07
(PID.TID 0000.0001)  cg2d: iter=    74 ; resid.=  1.01584984888867E-07
(PID.TID 0000.0001)  cg2d: iter=    75 ; resid.=  7.36784996694696E-08
(PID.TID 0000.0001)  cg2d: iter=    76 ; resid.=  5.55058478518737E-08
(PID.TID 0000.0001)  cg2d: iter=    77 ; resid.=  4.09959808436661E-08
(PID.TID 0000.0001)  cg2d: iter=    78 ; resid.=  3.19265059464422E-08
(PID.TID 0000.0001)  cg2d: iter=    79 ; resid.=  2.64054617209541E-08
(PID.TID 0000.0001)  cg2d: iter=    80 ; resid.=  2.26344397351846E-08
(PID.TID 0000.0001)  cg2d: iter=    81 ; resid.=  1.94074548075153E-08
(PID.TID 0000.0001)  cg2d: iter=    82 ; resid.=  1.65370251359345E-08
(PID.TID 0000.0001)  cg2d: iter=    83 ; resid.=  1.43123111008492E-08
(PID.TID 0000.0001)  cg2d: iter=    84 ; resid.=  1.16450182722840E-08
(PID.TID 0000.0001)  cg2d: iter=    85 ; resid.=  8.42812880180796E-09
(PID.TID 0000.0001)  cg2d: iter=    86 ; resid.=  6.51122127207400E-09
(PID.TID 0000.0001)  cg2d: iter=    87 ; resid.=  5.05975625158097E-09
(PID.TID 0000.0001)  cg2d: iter=    88 ; resid.=  3.88171381412850E-09
(PID.TID 0000.0001)  cg2d: iter=    89 ; resid.=  2.94562627440969E-09
(PID.TID 0000.0001)  cg2d: iter=    90 ; resid.=  2.77813704556316E-09
(PID.TID 0000.0001)  cg2d: iter=    91 ; resid.=  2.51669136452507E-09
(PID.TID 0000.0001)  cg2d: iter=    92 ; resid.=  2.04486876589807E-09
(PID.TID 0000.0001)  cg2d: iter=    93 ; resid.=  1.58880539676116E-09
(PID.TID 0000.0001)  cg2d: iter=    94 ; resid.=  1.23064471922032E-09
(PID.TID 0000.0001)  cg2d: iter=    95 ; resid.=  1.06275580881034E-09
(PID.TID 0000.0001)  cg2d: iter=    96 ; resid.=  8.58393230694361E-10
(PID.TID 0000.0001)  cg2d: iter=    97 ; resid.=  5.65800618464446E-10
(PID.TID 0000.0001)  cg2d: iter=    98 ; resid.=  4.02659678565212E-10
(PID.TID 0000.0001)  cg2d: iter=    99 ; resid.=  2.92301019310276E-10
(PID.TID 0000.0001)  cg2d: iter=   100 ; resid.=  2.49549449023791E-10
(PID.TID 0000.0001)  cg2d: iter=   101 ; resid.=  2.10468020425195E-10
(PID.TID 0000.0001)  cg2d: iter=   102 ; resid.=  1.70822824252510E-10
(PID.TID 0000.0001)  cg2d: iter=   103 ; resid.=  1.41913140330206E-10
(PID.TID 0000.0001)  cg2d: iter=   104 ; resid.=  1.23830132009272E-10
(PID.TID 0000.0001)  cg2d: iter=   105 ; resid.=  1.11390251354303E-10
(PID.TID 0000.0001)  cg2d: iter=   106 ; resid.=  9.29008077196533E-11
(PID.TID 0000.0001)  cg2d: iter=   107 ; resid.=  7.12784757482465E-11
(PID.TID 0000.0001)  cg2d: iter=   108 ; resid.=  5.72854091448702E-11
(PID.TID 0000.0001)  cg2d: iter=   109 ; resid.=  4.22349968885597E-11
(PID.TID 0000.0001)  cg2d: iter=   110 ; resid.=  3.21766691808546E-11
(PID.TID 0000.0001)  cg2d: iter=   111 ; resid.=  2.16229665606707E-11
(PID.TID 0000.0001)  cg2d: iter=   112 ; resid.=  1.50015685477948E-11
(PID.TID 0000.0001)  cg2d: iter=   113 ; resid.=  1.07966374033843E-11
(PID.TID 0000.0001)  cg2d: iter=   114 ; resid.=  7.92492738524100E-12
(PID.TID 0000.0001)  cg2d: iter=   115 ; resid.=  5.88102561309659E-12
(PID.TID 0000.0001)  cg2d: iter=   116 ; resid.=  4.35529943281554E-12
(PID.TID 0000.0001)  cg2d: iter=   117 ; resid.=  3.38252544831583E-12
(PID.TID 0000.0001)  cg2d: iter=   118 ; resid.=  2.70599408024103E-12
(PID.TID 0000.0001)  cg2d: iter=   119 ; resid.=  2.04245406704334E-12
(PID.TID 0000.0001)  cg2d: iter=   120 ; resid.=  1.50789095251256E-12
(PID.TID 0000.0001)  cg2d: iter=   121 ; resid.=  1.11886434420411E-12
(PID.TID 0000.0001)  cg2d: iter=   122 ; resid.=  8.12021823982329E-13
(PID.TID 0000.0001)  cg2d: iter=   123 ; resid.=  6.87998328167539E-13
(PID.TID 0000.0001)  cg2d: iter=   124 ; resid.=  5.34386592760700E-13
(PID.TID 0000.0001)  cg2d: iter=   125 ; resid.=  4.34999548188522E-13
(PID.TID 0000.0001)  cg2d: iter=   126 ; resid.=  3.07412440560091E-13
(PID.TID 0000.0001)  cg2d: iter=   127 ; resid.=  2.25897803399260E-13
(PID.TID 0000.0001)  cg2d: iter=   128 ; resid.=  1.70094371227292E-13
(PID.TID 0000.0001)  cg2d: iter=   129 ; resid.=  1.15679356407393E-13
(PID.TID 0000.0001)  cg2d: iter=   130 ; resid.=  8.98421293658530E-14
DEBUG_STATS_RL:    cg2d_x (SOLVE_FOR_PRESSURE)  min= -1.77769444404367E+01
DEBUG_STATS_RL:    cg2d_x (SOLVE_FOR_PRESSURE)  max=  7.30898793251824E+00
DEBUG_STATS_RL:    cg2d_x (SOLVE_FOR_PRESSURE) mean= -1.75273972164879E+00
DEBUG_STATS_RL:    cg2d_x (SOLVE_FOR_PRESSURE) S.D.=  6.76669921839993E+00
(PID.TID 0000.0001)      cg2d_init_res =   2.64607604585707E-01
(PID.TID 0000.0001)      cg2d_iters(min,last) =      -1     130
(PID.TID 0000.0001)      cg2d_last_res =   8.98421293658530E-14
(PID.TID 0000.0001) // =======================================================
(PID.TID 0000.0001) // Begin MONITOR dynamic field statistics
(PID.TID 0000.0001) // =======================================================
(PID.TID 0000.0001) %MON time_tsnumber                =                    60
(PID.TID 0000.0001) %MON time_secondsf                =   5.1840000000000E+06
(PID.TID 0000.0001) %MON dynstat_eta_max              =   7.4505483511917E-01
(PID.TID 0000.0001) %MON dynstat_eta_min              =  -1.8121248155390E+00
(PID.TID 0000.0001) %MON dynstat_eta_mean             =  -4.4605215969754E-03
(PID.TID 0000.0001) %MON dynstat_eta_sd               =   5.9053722678824E-01
(PID.TID 0000.0001) %MON dynstat_eta_del2             =   2.3698656359505E-03
(PID.TID 0000.0001) %MON dynstat_uvel_max             =   1.3250029299817E-01
(PID.TID 0000.0001) %MON dynstat_uvel_min             =  -1.2806859871797E-01
(PID.TID 0000.0001) %MON dynstat_uvel_mean            =   2.1092633968234E-03
(PID.TID 0000.0001) %MON dynstat_uvel_sd              =   1.3597505833060E-02
(PID.TID 0000.0001) %MON dynstat_uvel_del2            =   8.3898492806642E-05
(PID.TID 0000.0001) %MON dynstat_vvel_max             =   1.3925139343876E-01
(PID.TID 0000.0001) %MON dynstat_vvel_min             =  -9.5660250757167E-02
(PID.TID 0000.0001) %MON dynstat_vvel_mean            =   8.6998221021171E-05
(PID.TID 0000.0001) %MON dynstat_vvel_sd              =   8.7526926840989E-03
(PID.TID 0000.0001) %MON dynstat_vvel_del2            =   7.2959852073918E-05
(PID.TID 0000.0001) %MON dynstat_wvel_max             =   9.7010929638801E-05
(PID.TID 0000.0001) %MON dynstat_wvel_min             =  -6.7824916646560E-05
(PID.TID 0000.0001) %MON dynstat_wvel_mean            =  -3.6095835541409E-22
(PID.TID 0000.0001) %MON dynstat_wvel_sd              =   1.1687028325389E-05
(PID.TID 0000.0001) %MON dynstat_wvel_del2            =   1.2039878926261E-07
(PID.TID 0000.0001) %MON dynstat_theta_max            =   3.0550755859214E+01
(PID.TID 0000.0001) %MON dynstat_theta_min            =  -1.9673919911582E+00
(PID.TID 0000.0001) %MON dynstat_theta_mean           =   3.6332475138053E+00
(PID.TID 0000.0001) %MON dynstat_theta_sd             =   4.4236941400346E+00
(PID.TID 0000.0001) %MON dynstat_theta_del2           =   4.8890549704986E-03
(PID.TID 0000.0001) %MON dynstat_salt_max             =   3.7476622255134E+01
(PID.TID 0000.0001) %MON dynstat_salt_min             =   2.9881582328820E+01
(PID.TID 0000.0001) %MON dynstat_salt_mean            =   3.4727981940410E+01
(PID.TID 0000.0001) %MON dynstat_salt_sd              =   2.9642734169284E-01
(PID.TID 0000.0001) %MON dynstat_salt_del2            =   9.9001997572407E-04
(PID.TID 0000.0001) %MON dynstat_sst_max              =   3.0550755859214E+01
(PID.TID 0000.0001) %MON dynstat_sst_min              =  -1.9673919911582E+00
(PID.TID 0000.0001) %MON dynstat_sst_mean             =   1.8998044692137E+01
(PID.TID 0000.0001) %MON dynstat_sst_sd               =   9.0635376459035E+00
(PID.TID 0000.0001) %MON dynstat_sst_del2             =   2.7993717818266E-02
(PID.TID 0000.0001) %MON dynstat_sss_max              =   3.7456021564105E+01
(PID.TID 0000.0001) %MON dynstat_sss_min              =   2.9881582328820E+01
(PID.TID 0000.0001) %MON dynstat_sss_mean             =   3.4850392766300E+01
(PID.TID 0000.0001) %MON dynstat_sss_sd               =   9.8059819824109E-01
(PID.TID 0000.0001) %MON dynstat_sss_del2             =   8.0023221982058E-03
(PID.TID 0000.0001) %MON forcing_qnet_max             =   3.1927811686198E+02
(PID.TID 0000.0001) %MON forcing_qnet_min             =  -1.6864405924479E+02
(PID.TID 0000.0001) %MON forcing_qnet_mean            =  -1.0838497984171E+01
(PID.TID 0000.0001) %MON forcing_qnet_sd              =   6.1023027857854E+01
(PID.TID 0000.0001) %MON forcing_qnet_del2            =   8.8444669970173E-01
(PID.TID 0000.0001) %MON forcing_qsw_max              =   0.0000000000000E+00
(PID.TID 0000.0001) %MON forcing_qsw_min              =   0.0000000000000E+00
(PID.TID 0000.0001) %MON forcing_qsw_mean             =   0.0000000000000E+00
(PID.TID 0000.0001) %MON forcing_qsw_sd               =   0.0000000000000E+00
(PID.TID 0000.0001) %MON forcing_qsw_del2             =   0.0000000000000E+00
(PID.TID 0000.0001) %MON forcing_empmr_max            =   6.9200923273153E-05
(PID.TID 0000.0001) %MON forcing_empmr_min            =  -7.6877544093653E-05
(PID.TID 0000.0001) %MON forcing_empmr_mean           =   7.6014994766839E-07
(PID.TID 0000.0001) %MON forcing_empmr_sd             =   2.6929596826470E-05
(PID.TID 0000.0001) %MON forcing_empmr_del2           =   3.5385255820596E-07
(PID.TID 0000.0001) %MON forcing_fu_max               =   3.2648874521255E-01
(PID.TID 0000.0001) %MON forcing_fu_min               =  -2.9111716349920E-01
(PID.TID 0000.0001) %MON forcing_fu_mean              =   1.8949535869053E-02
(PID.TID 0000.0001) %MON forcing_fu_sd                =   9.5028365431322E-02
(PID.TID 0000.0001) %MON forcing_fu_del2              =   7.1121052638075E-04
(PID.TID 0000.0001) %MON forcing_fv_max               =   1.5403114557266E-01
(PID.TID 0000.0001) %MON forcing_fv_min               =  -1.7887474894524E-01
(PID.TID 0000.0001) %MON forcing_fv_mean              =  -7.3627218405330E-03
(PID.TID 0000.0001) %MON forcing_fv_sd                =   4.1994212761373E-02
(PID.TID 0000.0001) %MON forcing_fv_del2              =   4.6991047524395E-04
(PID.TID 0000.0001) %MON trAdv_CFL_u_max              =   3.7010409287911E-02
(PID.TID 0000.0001) %MON trAdv_CFL_v_max              =   2.7182071168171E-02
(PID.TID 0000.0001) %MON trAdv_CFL_w_max              =   2.7726197704943E-02
(PID.TID 0000.0001) %MON advcfl_uvel_max              =   3.8162222587693E-02
(PID.TID 0000.0001) %MON advcfl_vvel_max              =   2.7054312421304E-02
(PID.TID 0000.0001) %MON advcfl_wvel_max              =   3.0617762711326E-02
(PID.TID 0000.0001) %MON advcfl_W_hf_max              =   3.7178711863753E-02
(PID.TID 0000.0001) %MON pe_b_mean                    =   4.4627292323304E-04
(PID.TID 0000.0001) %MON ke_max                       =   1.4147204244749E-02
(PID.TID 0000.0001) %MON ke_mean                      =   1.2041737176786E-04
(PID.TID 0000.0001) %MON ke_vol                       =   1.3226782436723E+18
(PID.TID 0000.0001) %MON vort_r_min                   =  -3.9589351588270E-07
(PID.TID 0000.0001) %MON vort_r_max                   =   4.1417973361425E-07
(PID.TID 0000.0001) %MON vort_a_mean                  =  -2.5274807366950E-05
(PID.TID 0000.0001) %MON vort_a_sd                    =   7.3604593809615E-05
(PID.TID 0000.0001) %MON vort_p_mean                  =  -3.1845655761041E-05
(PID.TID 0000.0001) %MON vort_p_sd                    =   1.3162456390422E-04
(PID.TID 0000.0001) %MON surfExpan_theta_mean         =   1.3164793580258E-07
(PID.TID 0000.0001) %MON surfExpan_salt_mean          =   8.1761938820540E-09
(PID.TID 0000.0001) // =======================================================
(PID.TID 0000.0001) // End MONITOR dynamic field statistics
(PID.TID 0000.0001) // =======================================================
(PID.TID 0000.0001) // =======================================================
(PID.TID 0000.0001) // Field Current uVel   at iteration         60
(PID.TID 0000.0001) // CMIN =         -1.280685987179677E-01
(PID.TID 0000.0001) // CMAX =          1.325002929981699E-01
(PID.TID 0000.0001) // CINT =          9.650699693190282E-03
(PID.TID 0000.0001) // SYMBOLS (CMIN->CMAX): -abcdefghijklmnopqrstuvwxyz+
(PID.TID 0000.0001) //                  0.0: .
(PID.TID 0000.0001) // RANGE I (Lo:Hi:Step):(     1:    90:     1)
(PID.TID 0000.0001) // RANGE J (Lo:Hi:Step):(    40:     1:    -1)
(PID.TID 0000.0001) // RANGE K (Lo:Hi:Step):(   1:   1:   1)
(PID.TID 0000.0001) // =======================================================
(PID.TID 0000.0001) K =   1
(PID.TID 0000.0001)                I=10      I=20      I=30      I=40      I=50      I=60      I=70      I=80      I=90
(PID.TID 0000.0001) |--J--|123456789|123456789|123456789|123456789|123456789|123456789|123456789|123456789|123456789|
(PID.TID 0000.0001)     40 mnmmm..mmmmmmmmmmmm...................................................................mmmm
(PID.TID 0000.0001)     39 mnnmmmmnnnnnnn....m......................................................mmm.........lkjkl
(PID.TID 0000.0001)     38 nnoonnnnnnnnn............................................................mmmm.......kkkklm
(PID.TID 0000.0001)     37 opo...................................................................m....lm....kkkl..mnn
(PID.TID 0000.0001)     36 qp..........................................llm.....................mmmmmmlkkl..kjklmnoopq
(PID.TID 0000.0001)     35 po..................................mmm...mlllmm....lllm............mm.....mlllkjmnnooprqp
(PID.TID 0000.0001)     34 ....................................mml..lmnnnnn..nllmmmm...................oonnooppqqpp..
(PID.TID 0000.0001)     33 .....................................mkjklnoooppoooppponnnn..................pppqqqqppoon.
(PID.TID 0000.0001)     32 .....................................mlllmnpqqqqqqqqrrqqpon.................qrsqrqqponnnn.
(PID.TID 0000.0001)     31 .....................................onoppqrrrsssssstttsrqo...............ouxvutsrqpommm..
(PID.TID 0000.0001)     30 ....................................suuuuvvvuuuuuuuvvvutsqo.............qtvvvvuutsrponmm..
(PID.TID 0000.0001)     29 ..................................qvwwwxxxyyxwvutttuuutsqpon............tuvusrpppponmllm..
(PID.TID 0000.0001)     28 ................................oqtttsstuttttsrqpppqqqponnnnn..........rrqponnmmmllkkklm..
(PID.TID 0000.0001)     27 ...............m...............nqppoomnoooooonnnmmmnoonnmmmmmn....mmn..pponnnnnmllllkk....
(PID.TID 0000.0001)     26 ...............oo............llorqonmlmnnmmmmnmmmmnoooooooonnnnm..mmnmopppoooopoonnonm....
(PID.TID 0000.0001)     25 ...............opo....om....noootsqomllnnmmmmnnmmnooooopooonnnnnm....mnnpppppopppooonm....
(PID.TID 0000.0001)     24 .............onmmmn..onl....no..mmkjiiijjjjiijkkllmmllkkkjkkllllllmn..mjlkllllmmmlkklm....
(PID.TID 0000.0001)     23 .............hfggik..jhi....kn...eedbbacdedbdefghiiijijiijjihhhghghil.....jiffghhghhjo....
(PID.TID 0000.0001)     22 l............a---bddccdf....m..gacfdaaabcccbcdeghiiillnonmlkjjjiiiihjj.......jheddgikopqpm
(PID.TID 0000.0001)     21 nmn.........gddcaaccdgklo......ignnjggfgghihhiijjjihkkmnnmklllnmnlljij.........iedhklnponn
(PID.TID 0000.0001)     20 mmn........jjllkjiiiknpom.........oomlhkknonnnmlkljhjjiijihhjkmllkkihj..........idgjklmkkl
(PID.TID 0000.0001)     19 loo........ihklkmnnkklnmkmn....mp......onprrqqponnmkkjhhhgeeeeeegggfeg............iggiiihi
(PID.TID 0000.0001)     18 imn........geefdfijkjijjjkmnmmmln....oqqmqrrqqqonoonmkjiihgedccbdfeedek...........kighhhgg
(PID.TID 0000.0001)     17 gjl..........ihghhikmmkklmmmmml......poonoppopppnmmnmmlkjjjhggfefgggffg..........omjihffgf
(PID.TID 0000.0001)     16 ijk.......n..lkkjhkknqmklnoomn........mmmnnnnoppnmlmmmmlkllkkjjijkjkkjkk.........omkjihiii
(PID.TID 0000.0001)     15 kkkk.....nn..nmmlklkmnmllnpoo..........mlmmmnnpponmmnmmlllllkklmmlllmlllm.......mmllkkkkkk
(PID.TID 0000.0001)     14 kkii.....mlmnooonnooonlklmmmn..........nmlmnnppppooppponnnnnllmnnmlmmmllm......oonnmmmlkkk
(PID.TID 0000.0001)     13 mlih.....nmmnooonopqpnmmmmlkk..........ppppqqqqqpqqrrrqqrrrrqqpponooonmlm.....noppopppoonn
(PID.TID 0000.0001)     12 qomljkimprrqqqppoopqpppppomllmnnnm.....pqrqopqppqqqqqqqqrssstsrqppqqpoml......nqrrssstsssr
(PID.TID 0000.0001)     11 srqqpnortwwwwwutsssssrrrrqpoooooonm...ooppp..oooooooooooopqqqqqqpopqponl.....npstuuuuuutss
(PID.TID 0000.0001)     10 srqrrsuvwyz++zxwvvwvtsstsrqqpppponmm..ooonl..ponmlmnnnnmmlmnnooooooooonn...nnoprstuuuutttt
(PID.TID 0000.0001)      9 ssrsstuuvxzywvvuttuutssssssrrqqqppoonnoonn..nonnnnnnnmnnmmmmnnnnnnnnnnnl..mnppqrrsssttttut
(PID.TID 0000.0001)      8 ttuuutsrtuuuttsrrsrstttttttttssssttuuttsrqttrqppqrrrqppppqpppppppoooooon..pppqrrrqrrrrsttt
(PID.TID 0000.0001)      7 ttutsrqqrrrrrrrrsrqqssrrrsssssstuuwxxwwvvvwvtssttuuuvvuttsrrrrrrsrrrrrrttssrssssrqqqqqqrrs
(PID.TID 0000.0001)      6 qqqpppqqqqqqqppqqrrqpppqqqqrrsttttuuutuvvwxwvuuvvvvvwwwvutssstttttuuuuuvwwwxxwvtsqqpppppqq
(PID.TID 0000.0001)      5 mmmmnoooooonnnnnopppoooonnoopqqqqpqqqqrstuvvvvuvvuuuutssssssttttttttuuuvuuttutsrqppooooonn
(PID.TID 0000.0001)      4 lkkkllmmmmmmmmmmmnnnnmmlllllmmmmmmnnnnooppqqrrrrrrqqpoooppqrrrrrrrrrrrrqpo...nonnnnmmmmmll
(PID.TID 0000.0001)      3 llkkkllllm.............................lmmmmnnnnnnmmmlmmnnooooooooonnnnmn...mnnmmmmmmmmmll
(PID.TID 0000.0001)      2 ...........................................mmmmmmllllllllmmmmmmm...mmm......mmmlmmmmmmm...
(PID.TID 0000.0001)      1 ..........................................................................................
(PID.TID 0000.0001) // =======================================================
(PID.TID 0000.0001) // END OF FIELD                                          =
(PID.TID 0000.0001) // =======================================================
(PID.TID 0000.0001) 
(PID.TID 0000.0001) // =======================================================
(PID.TID 0000.0001) // Field Current vVel   at iteration         60
(PID.TID 0000.0001) // CMIN =         -9.566025075716691E-02
(PID.TID 0000.0001) // CMAX =          1.392513934387630E-01
(PID.TID 0000.0001) // CINT =          8.700431266515922E-03
(PID.TID 0000.0001) // SYMBOLS (CMIN->CMAX): -abcdefghijklmnopqrstuvwxyz+
(PID.TID 0000.0001) //                  0.0: .
(PID.TID 0000.0001) // RANGE I (Lo:Hi:Step):(     1:    90:     1)
(PID.TID 0000.0001) // RANGE J (Lo:Hi:Step):(    40:     1:    -1)
(PID.TID 0000.0001) // RANGE K (Lo:Hi:Step):(   1:   1:   1)
(PID.TID 0000.0001) // =======================================================
(PID.TID 0000.0001) K =   1
(PID.TID 0000.0001)                I=10      I=20      I=30      I=40      I=50      I=60      I=70      I=80      I=90
(PID.TID 0000.0001) |--J--|123456789|123456789|123456789|123456789|123456789|123456789|123456789|123456789|123456789|
(PID.TID 0000.0001)     40 jkmnl.kjjjkkll...kk..................................................................kkkkj
(PID.TID 0000.0001)     39 kllmlkkjjjkkl...........................................................kkkk........hjjkkk
(PID.TID 0000.0001)     38 kmm.......................................................................kkk......jh.llkk
(PID.TID 0000.0001)     37 mn...................................................................kk...jkj...gknmk.llkk
(PID.TID 0000.0001)     36 mm.........................................lmml....................jkk....hgij.ffknmlkjllj
(PID.TID 0000.0001)     35 ...................................kkll..lmmmmml...hjlmm...................ehiiijlllllmm..
(PID.TID 0000.0001)     34 ....................................jkl.klllmmmk.ijjjkllk...................gghijkllljlk..
(PID.TID 0000.0001)     33 ....................................jiijkkkkklkjjiiiiiiiijj.................kegiiiiiihgik.
(PID.TID 0000.0001)     32 ....................................khhhiiihhihgggfffffgghi................qlefggffgffgi..
(PID.TID 0000.0001)     31 ....................................kgeeeeddeeeddeddeeffffi..............ihheddeeeffgghi..
(PID.TID 0000.0001)     30 ...................................liebbbcbacddddeefghhhgfg............olhggeefffffghhij..
(PID.TID 0000.0001)     29 .................................nllifddfgffghhhhhhjkkkjihgg...........nljiiiiihhhghiijk..
(PID.TID 0000.0001)     28 ...............................mnnnmljiiklkkllkklllmmmlkjjihh.........lnmmmmlkkkkjijij....
(PID.TID 0000.0001)     27 ..............kk..............mlmmmnnmmmnnmmllkllllllllkkkkjij...klmo.lmmllllkjjjjjjjk....
(PID.TID 0000.0001)     26 ..............lll...........jkmmmnonnmmmmmmmllllllkklmmmnnmmmlkk....oomnllmmmmmmmnmmno....
(PID.TID 0000.0001)     25 ..............oppl...kjk...mnm.pqrsssrssrqqqqpqqppppqrstuutsronml....popoqrsssstssrsrp....
(PID.TID 0000.0001)     24 ............otusrmh.mlkk...mml..qtwxyz++zxwwvvvwwwwwxxxz+zxvtrponoon.....suuwxyyxvvvup....
(PID.TID 0000.0001)     23 ............mqstrol.imop...km...elruwxyzyxvuuuvuutuvvvvuvvusqonnnnnom.......qsuvuutstp....
(PID.TID 0000.0001)     22 j...........iloppnmljmop......hfccfjlmoqqpponnnnnoprrstuvvvsqnlmlllmnl........pqqssrpnjknm
(PID.TID 0000.0001)     21 kji........lmopomllkjknoo......f.-bcdfkkjkkkkklmoooppqsuuuttrponnmmljh.........kmstrponnml
(PID.TID 0000.0001)     20 hfh.......lostsokiiijjlkh......g......pmjjjjkklnoonnonpqpoopqqponmlllj...........urppopoli
(PID.TID 0000.0001)     19 eei.......kmssnhcbddegggegi...iij.....mllkjjkkllllkmonmljiijjhhhhhhijj...........omkklkjhg
(PID.TID 0000.0001)     18 efi.......h.rqjd-bcdddffegjlmli.....kmnnmmlkkkjjjklmnmjihgffeeeeeffghhl..........kjhhifdee
(PID.TID 0000.0001)     17 egi.......l.mqlhhihjigghhijklk.......mmmmlkjklllmmmmnmljihhhgfffeeffgfi.........jlkihheccd
(PID.TID 0000.0001)     16 ijl......mm.jljiifhkihijkjihj.........jjjijijkkklllmmmlkjklkjjjihhhhijjl........hkkjjjjiii
(PID.TID 0000.0001)     15 mnpm....lol.fggfffgljfgiklkii.........hhggffgghhhiiiiiihhiiiikkkjjjjklnnl......ihijhijjkll
(PID.TID 0000.0001)     14 mopo....jijgdeeedcgjjffjlmlkj.........hfgggfffgggggfeffffgggilkjjjkllmool.....jighhffhikll
(PID.TID 0000.0001)     13 nnno....fgigffggffghgggkmlkkk.........ighiihgghhhhgffffggghhjljklllllmnm.....jjjjjiggijklm
(PID.TID 0000.0001)     12 ponmmihihjnmkkmnmlllkklnonnmlkjkkj....kkkji.iijjkjiiiiijjjkllkkmoponnnnl.....jllmnnllllmop
(PID.TID 0000.0001)     11 srqqononnoqrporrsrppppqqqrrqononmml..jlmmji.jikkllkkkkklmmmnnmmorsrpoonl....ilpqqpqpoooprs
(PID.TID 0000.0001)     10 srrssrqppqrttrrsttqoprrrrrrrqpponmop.lmomi..jhjkmmmmmllmoopponoqssrqpomk..mokosssqqqooqqrs
(PID.TID 0000.0001)      9 pppqsrpnoppqrrpnqrnlmoqqqpppponnmlnqpmmmmi.mlkkklllklmmmnoppnnnprrqppojh.knonorsqpponnopqp
(PID.TID 0000.0001)      8 nnooopnnnnnnoonllppmmnnooonnnnnnmlmnmkjiiimomlkllkjijjkmmmnnmmmnooonnmhh.popqqrsqonmmmmnoo
(PID.TID 0000.0001)      7 nmmllmmnnmmnnmmlkmpponmnmmmmmmnmmmnoljiggjlnnmlmmllkjiiklllmlllmmmmmllkknomnppqponmlllmmmn
(PID.TID 0000.0001)      6 mmkkkllmmlklllkklmnonmmmlkjkllllkklmlkjihiklllmmmlmmlkiiijkmmlkklmllkkllnonnnnnmllllklmmmm
(PID.TID 0000.0001)      5 lkjjjjjkkjjjjjjjkkkllkkkkjjjjjjjiijjkkkjjkkkjkmnmlmmlkjjjjklllkkllllkllllm..llllkkkkklllll
(PID.TID 0000.0001)      4 ihhhhhhhhi............................jjjkkkkklmmlllkjjjkkllkkjjjkkkkkjjj...lllkkkkkkkkjjj
(PID.TID 0000.0001)      3 ..........................................kkkkkkkkjjjijkkkkkjjjj..kjjj.....kllkjjjjjkjj...
(PID.TID 0000.0001)      2 ..........................................................................................
(PID.TID 0000.0001)      1 ..........................................................................................
(PID.TID 0000.0001) // =======================================================
(PID.TID 0000.0001) // END OF FIELD                                          =
(PID.TID 0000.0001) // =======================================================
(PID.TID 0000.0001) 
(PID.TID 0000.0001) // =======================================================
(PID.TID 0000.0001) // Field Current theta  at iteration         60
(PID.TID 0000.0001) // CMIN =         -1.967391991158238E+00
(PID.TID 0000.0001) // CMAX =          3.055075585921429E+01
(PID.TID 0000.0001) // CINT =          1.204375846310094E+00
(PID.TID 0000.0001) // SYMBOLS (CMIN->CMAX): -abcdefghijklmnopqrstuvwxyz+
(PID.TID 0000.0001) //                  0.0: .
(PID.TID 0000.0001) // RANGE I (Lo:Hi:Step):(     1:    90:     1)
(PID.TID 0000.0001) // RANGE J (Lo:Hi:Step):(    40:     1:    -1)
(PID.TID 0000.0001) // RANGE K (Lo:Hi:Step):(   1:   1:   1)
(PID.TID 0000.0001) // =======================================================
(PID.TID 0000.0001) K =   1
(PID.TID 0000.0001)                I=10      I=20      I=30      I=40      I=50      I=60      I=70      I=80      I=90
(PID.TID 0000.0001) |--J--|123456789|123456789|123456789|123456789|123456789|123456789|123456789|123456789|123456789|
(PID.TID 0000.0001)     40 -bcccba-------abdddbbbbbbbbbbbbbbbbbbbbbbbbbbbbbbbbbbbbbbbbbbbbbbbbbbbbbbbbbbbbbbbbbbaaa--
(PID.TID 0000.0001)     39 bbcccccbaa----bbbddbbbbbbbbbbbbbbbbbbbbbbbbbbbbbbbbbbbbbbbbbbbbbbbbbbbbb----bbbbbbbbbaaaab
(PID.TID 0000.0001)     38 deeeeecccbba-bbbbbbbbbbbbbbbbbbbbbbbbbbbbbbbbbbbbbbbbbbbbbbbbbbbbbbbbbbb-----bbbbbbb---bcd
(PID.TID 0000.0001)     37 fggbbbbbbbbbbbbbbbbbbbbbbbbbbbbbbbbbbbbbbbbbbbbbbbbbbbbbbbbbbbbbbbbbbbbbbba-bbbbcbdeebcdde
(PID.TID 0000.0001)     36 ggbbbbbbbbbbbbbbbbbbbbbbbbbbbbbbbbbbbbbbbbbba--bbbbbbbbbbbbbbbbbbbbccccbababbdbcefgghhhggg
(PID.TID 0000.0001)     35 ffbbbbbbbbbbbbbbbbbbbbbbbbbbbbbbbbb----bbbbbccb-bbbdddefbbbbbbbbbbbbbbbbbbbbdedeefghhiiihg
(PID.TID 0000.0001)     34 bbbbbbbbbbbbbbbbbbbbbbbbbbbbbbbbbbb----bacccccddbcceeefffbbbbbbbbbbbbbbbbbbbabdeffghijjibb
(PID.TID 0000.0001)     33 bbbbbbbbbbbbbbbbbbbbbbbbbbbbbbbbbbbb--abbcddccddeeeeeffggghbbbbbbbbbbbbbbbbbaacghijjkkkjjb
(PID.TID 0000.0001)     32 bbbbbbbbbbbbbbbbbbbbbbbbbbbbbbbbbbbb-abbccddddeefggggghhhhibbbbbbbbbbbbbbbbccabiklllllkkjb
(PID.TID 0000.0001)     31 bbbbbbbbbbbbbbbbbbbbbbbbbbbbbbbbbbbbdeffgghhiiiiiiiiijjkkjjbbbbbbbbbbbbbbhjlkhjmnnmmmmlmbb
(PID.TID 0000.0001)     30 bbbbbbbbbbbbbbbbbbbbbbbbbbbbbbbbbbbkkjkkkkklllkkkllllmmmmllbbbbbbbbbbbbmnnoppoopoooonnnnbb
(PID.TID 0000.0001)     29 bbbbbbbbbbbbbbbbbbbbbbbbbbbbbbbbbnononnnnnnnnnnnnnnnooooonmmbbbbbbbbbbbpqqqqqqqpppppoooobb
(PID.TID 0000.0001)     28 bbbbbbbbbbbbbbbbbbbbbbbbbbbbbbbnppppppppppppppqppqqpqqqqpoonnbbbbbbbbbrrrrrrrrqqrqqqppppbb
(PID.TID 0000.0001)     27 bbbbbbbbbbbbbbuubbbbbbbbbbbbbbqqrrrrssrrssssssssssssssrrrqppppbbbrrstbttttttttssssrrrqbbbb
(PID.TID 0000.0001)     26 bbbbbbbbbbbbbbutubbbbbbbbbbbtstttttuuuuuuuuuuuuuuuutttsssrqqqrsubttuvvuvuuuuuuuutssrrqbbbb
(PID.TID 0000.0001)     25 bbbbbbbbbbbbbbuuvvbbbwvwbbbuuvvvvvwwwwwwwwvvvvvvvvvuuutttsssttuvwbbbwvvvvvvuuuuuttsrqpbbbb
(PID.TID 0000.0001)     24 bbbbbbbbbbbbvvvvwxybwwwxbbbwwvbxwwxxxwwwwwwvwwwvvvvvvvvvvuvvvvwwwvvvbwvvvvvvvvuuutttssbbbb
(PID.TID 0000.0001)     23 bbbbbbbbbbbbwvwxxyybwwxxbbbxwwbbxxxxxxxxxxxwwwwwwwwwwxwwwwwwwwwwwwwwvbbbbwwwvvwvvvvvvvbbbb
(PID.TID 0000.0001)     22 wbbbbbbbbbbbwwwxxxyyxxyybbbxxbyyyyyyyyyyyyyxxxxxxxxxxxxwwwwwxwwwwwwwvwbbbbbbxwwwwwxxxxyxxw
(PID.TID 0000.0001)     21 wwvbbbbbbbbxxxxxyyyyyzz++bbbbbyzzzzzzzzzzzzyyyyyyyyyyyxxxwxxxxxwwwwvvvbbbbbbbbyxxyyyyzzyxw
(PID.TID 0000.0001)     20 wwvbbbbbbbyyyyyyyzzzzzzz+bbbbbbzbzzzzz+++++zzzzzzzzzyyyyxxxyxxxxxxxwwvbbbbbbbbbyyyyyyyyxxx
(PID.TID 0000.0001)     19 wwwbbbbbbbzzzzyzzyyzzzzyzzybbbzzzbbbbb++z+++zzzzzzzzyyyxxxxxxwwwwwwwvvbbbbbbbbbbbyxxxwwwww
(PID.TID 0000.0001)     18 vutbbbbbbbzzyyxxxxyyyyyyyyzyzz+zzbbb++zzzz+zzzzzzzzzzyyyxyxxwwwvvvvvvuubbbbbbbbbbyxxxwwwww
(PID.TID 0000.0001)     17 uusbbbbbbbzbyxxxxxxyyyyyyyyyyzzbbbbbzzzzzz+zzzzzzzzzzyyyyyxxwwwvuvvuttvbbbbbbbbbxyyxxwuvvu
(PID.TID 0000.0001)     16 utsbbbbbbyzbyyxxxxxxxxxwwxxxyzbbbbbbbyyyyzzzzzzzzyyyyyyyxxyxxwwwvvvuutttbbbbbbbbyyyyxwvvvu
(PID.TID 0000.0001)     15 tsrrbbbbwyybxxxxxwwwwwwvvvvwxbbbbbbbbbwwxxxxxxxxxxxxyyxxyyyyxwwwwvvuutssrbbbbbbxxyxxyxxwvu
(PID.TID 0000.0001)     14 utrqbbbbwyxwwxwvwwwvvuuuttuuubbbbbbbbbwwwwwwwwwwwxxxxxxwxxxxxwwwvvvvtssssbbbbbwwxxxxxxwwvu
(PID.TID 0000.0001)     13 uutrbbbbwxwvwwvuvvvvvuuttttttbbbbbbbbbvvvvvvvvvvvvuvvvwvwwwxxwwvvuuuusssqbbbbvwwwwwwwwwvvu
(PID.TID 0000.0001)     12 tstsssrtuvutuutssssstutrrsssrqqrrqbbbbuuuutttttsststttttttuvuutttstttsrrbbbbbtvvvuuuuuuttt
(PID.TID 0000.0001)     11 qppqrrsssssrrsrrqqppqrrpqqqppqqqqqqbbsttsssbrrrrrrrrrrrrrrssrqrrrrrssrqpbbbbprstssrssrrrqq
(PID.TID 0000.0001)     10 mmmlnoopppppoponnnnnnnnmmmmmmnooopppbqrrrrqbpqqqqqqpppqqppppoopppooopppobboopppppoooopponn
(PID.TID 0000.0001)      9 jjiiijjjkjkkkkjjjijjjjjiiijjijkllnnmmnooopbnnoooooooooooonnmmmnnmmllmmnmbmnnnnmmmllkkllkjj
(PID.TID 0000.0001)      8 ggggggghgghhiihhhgghhihgghhhhiijjjkkkkllmmmllllllllmmmllllkkkjkkkkkkkklkbkllkkjjiiihhhggff
(PID.TID 0000.0001)      7 eeeeeeffggfffggggfffffeeffggggghhhhhhiijkkkjjjkkkjjjiiiiiiiiiiiiiiiiijjjiijjiihhgfffffeeee
(PID.TID 0000.0001)      6 ddddeeeeeeeeeefeffeeeefffeeedeefffffggghhiiihhhiihgfffgggggggffghhhhhhhhhhhhhgffeeeedddddd
(PID.TID 0000.0001)      5 dddeeeeddeeeeeeeeeeeeeeedddeeeeefeeeeeffffggffffffeddeeeeeeeeeeffffffffffffeeeeddddddcdccd
(PID.TID 0000.0001)      4 dddddddccddcccccccdcccccbbbcccccccccccdddddddddcddddddddddddddddddddddddddbbbbbcccdddccccd
(PID.TID 0000.0001)      3 ccccbbbaaabbbbbbbbbbbbbbbbbbbbbbbbbbbbbbbbbcccccccccccccbbbbbbbbbbbbbbbbbbbbbaaabbcccccbbb
(PID.TID 0000.0001)      2 bbbbbbbbbbbbbbbbbbbbbbbbbbbbbbbbbbbbbbbbbbbbccccbbbbbaaaaaaaaababbaaaabbbbbaaaaabbbbbbbbbb
(PID.TID 0000.0001)      1 bbbbbbbbbbbbbbbbbbbbbbbbbbbbbbbbbbbbbbbbbbbbbbbbbbbbbbbbbbbbbbbbbbbbbbbbbbbbbbbbbbbbbbbbbb
(PID.TID 0000.0001) // =======================================================
(PID.TID 0000.0001) // END OF FIELD                                          =
(PID.TID 0000.0001) // =======================================================
(PID.TID 0000.0001) 
(PID.TID 0000.0001) // =======================================================
(PID.TID 0000.0001) // Field Current etaN   at iteration         60
(PID.TID 0000.0001) // CMIN =         -1.812124815538981E+00
(PID.TID 0000.0001) // CMAX =          7.450548351191706E-01
(PID.TID 0000.0001) // CINT =          9.471035743178341E-02
(PID.TID 0000.0001) // SYMBOLS (CMIN->CMAX): -abcdefghijklmnopqrstuvwxyz+
(PID.TID 0000.0001) //                  0.0: .
(PID.TID 0000.0001) // RANGE I (Lo:Hi:Step):(    -1:    92:     1)
(PID.TID 0000.0001) // RANGE J (Lo:Hi:Step):(    42:    -1:    -1)
(PID.TID 0000.0001) // RANGE K (Lo:Hi:Step):(   1:   1:   1)
(PID.TID 0000.0001) // =======================================================
(PID.TID 0000.0001) K =   1
(PID.TID 0000.0001)                I=8       I=18      I=28      I=38      I=48      I=58      I=68      I=78      I=88
(PID.TID 0000.0001) |--J--|101234567|901234567|901234567|901234567|901234567|901234567|901234567|901234567|901234567|9012
(PID.TID 0000.0001)     42 ............................................----aaaabbbcccccbbbbcc..dccc.....-aaaabbbbbbb.....
(PID.TID 0000.0001)     41 ..............................................................................................
(PID.TID 0000.0001)     40 oonnnoo.onnnnnnnnnnnn..................................................................ooooonn
(PID.TID 0000.0001)     39 nnnnnnoooooooooo...nn.....................................................hhhi........oooonnnn
(PID.TID 0000.0001)     38 nnooooooooooppq...........................................................hiiii......ponnnnnoo
(PID.TID 0000.0001)     37 oooop..................................................................ll...jjj...nnnon.nooooo
(PID.TID 0000.0001)     36 oopr.........................................pppo....................llmmmlkjkkj.olklnnooooopr
(PID.TID 0000.0001)     35 qqqq.................................mmmm..ooopppp...tssst...........nnn....kiiijjjklmmnooqqqq
(PID.TID 0000.0001)     34 .....................................nmmm.oooopppq.rqqqqrsu..................kkjjjjklmnops....
(PID.TID 0000.0001)     33 p.....................................nnmnnooooppqqqqqqqrsstu.................mkkllmmoppppp...
(PID.TID 0000.0001)     32 r.....................................oonnnooppqqqqrrrrrssstt................gmmmnoppqqqqpr...
(PID.TID 0000.0001)     31 ......................................oooooppqrrrrrsssstttutt..............ooppooppqqqqqpq....
(PID.TID 0000.0001)     30 .....................................qrrrrrrsssstttttttuuuvuu............nqqrsssssssrrrqqq....
(PID.TID 0000.0001)     29 ...................................uvuvvvuuuvvuuuuvvuuuvvvvvut...........rtuuuutttsssrrrqr....
(PID.TID 0000.0001)     28 .................................uwwxxyxxxwxxwwwwwwwvvvvvvvvuut.........uuvvuuuttttssrrrrr....
(PID.TID 0000.0001)     27 ................tt..............xxyyyyyyyyxyxxxxxwwwwwwwwvvvuuut...vvvv.vwvvvuuutssssrrq......
(PID.TID 0000.0001)     26 ................ttu...........yxyyzzzzzzzzzzyyyyxxxxxxxwwwvvuuuttu.vvvwxwxwwvvvuttssssrr......
(PID.TID 0000.0001)     25 ................uuuv...www...yxxyzzzzzzzzzzzyyyxxxxxxxwwwwvvuuuuuuv...wxxxxwvvuutttssrrr......
(PID.TID 0000.0001)     24 ..............uuuvvww.xwww...yyx.+zyyxxxxxyyyxxxwwwwwwwvvvuuuuvvvvvvuu.xwwwvvvuutttsssrr......
(PID.TID 0000.0001)     23 ..............vuvvvww.xwww...zyy..yxxwwwwxxxxxxwwwwwwwwvvvvvuuuuuuuuuuu....vvuuutttttsss......
(PID.TID 0000.0001)     22 ttt...........vvvvvvwwxwxx...zy.yyyyxxxxxxxxxxxxxxxxxxxxxwwwvvvvvuuuuuvv......vvuuutttutttttt.
(PID.TID 0000.0001)     21 tttts........wvvvvvvwwxxxyy.....yzzyyyyyyyyyyyyyyyyyyxxxxxwwwwvvvvvuuuuv........vuuuuuuuuttttt
(PID.TID 0000.0001)     20 tttts.......xwwwwwwwwxxxxyy......y.yyyyzzzzzzzzyyyyyxxxxxxwwwwwvvvvuuuuu.........vuvuuuttttttt
(PID.TID 0000.0001)     19 sssss.......xxxwwwwwwxxxxxxxx...yyy.....zyyyyyyyyyxxxxxxwwwvvvvvuuuuuuuu...........vuuttttssss
(PID.TID 0000.0001)     18 sssss.......yyxwwvvwwwwwwwwxxxxyyyy...++zyyyyyyyxxxxyxxxwwwwvvvuuuttuuutt..........vutttssssss
(PID.TID 0000.0001)     17 srrrr.......y.zyxwwxxxxxwwxwwwxxy.....zzyyyyyyyyyyyyyyyxxwwwwwvvvuuuuuutt.........wwvuttsssrrr
(PID.TID 0000.0001)     16 tssrr......+z.+zyyyyyxyxxwwwwwxx.......zyxyyyyyyyyyyyyyyyxxxxxxwwvvvuuutts........wvvuuutttssr
(PID.TID 0000.0001)     15 uttsrr....zzx.zzyyyxyxxxxwwwvvw.........xxxxyyyyyyyyyyyyyyyyyyxxwwvvvuutsss......uvvvvvvvuutts
(PID.TID 0000.0001)     14 vuutsr....yyxwyyyxxxxxvvwvvvuuu.........wwwxxxxxxxxxxxxyyyyyyyyxxwwwvvuutss.....uuvvvvwwvvvuut
(PID.TID 0000.0001)     13 vvuuts....xyyxxxxwwwwwvvwwvutts.........vwwwwwwwwwvvvvwwwxxxxyyxxxwwwvuutss....tuuvvvvwwwwvvuu
(PID.TID 0000.0001)     12 vvuuttsqtuxyyxxxxwwvvvvvvvuuttssssrr....uvvvvuuuuuuuuuvvvvvwwwwwwwwvvvutts.....uuuuuuuvvvvvvuu
(PID.TID 0000.0001)     11 utttssstuvwxxxwxxwvvvvuuuuuttssssrsrr..ttttuu.tuuutttuuuuvuuvvvvwwwuuuttsr....rtttttttttuuuttt
(PID.TID 0000.0001)     10 srrqqqqrrrsstsrstssrrrsssssrrqqqqqrrrr.sttsst.rsstttttuuuvuuuuuuvvvussssrs..sprsrqppppqrrssrrq
(PID.TID 0000.0001)      9 nnnnnnnmmmnnnmllmmmllmnoooooooooopqrsrqrrrrr.trrssttttttuvvuuttttutsrrrqqp.rrqpppnmllllmnnnnnn
(PID.TID 0000.0001)      8 iiiijiihhhhhiiiihikigijjjjjjkkkllmmnppoppqrrsrqqqqrrrssssssssrrrsssrqqqpqt.ponmmljhhhhhiiiiiii
(PID.TID 0000.0001)      7 eeeeddeeefffffefffghgfeeffffggghhhiiiiiijlnoonnnnnnmmnnoopoooooopppooooooppnnnmkjhgfeefeeeeeee
(PID.TID 0000.0001)      6 cbbabbcdddcddddddeeffedddddddeeeeeeeeddefgijkkjjjjiiihhhijkkllllllllllklkkkkjihgfedddcdddccbba
(PID.TID 0000.0001)      5 bbaabbcccccbcccccddddcccbbbbbcbbbbbbbccbccdeeefffeeedddddefghhhhhhhhhgggggfedcbbbbbbbbbbbbbbaa
(PID.TID 0000.0001)      4 bbbbbbbbcccccdddccccccccbbcbbbbbbbbaaaaaaabbbbbbbbbbaabbccddeeeeeeeeedddddde..-aaaaaabbbbbbbbb
(PID.TID 0000.0001)      3 cccccccccccc............................aaaaaaaaaaaaaabbbccccbbbcccccccccdd..bbaaabbbbbbbbcccc
(PID.TID 0000.0001)      2 ............................................----aaaabbbcccccbbbbcc..dccc.....-aaaabbbbbbb.....
(PID.TID 0000.0001)      1 ..............................................................................................
(PID.TID 0000.0001)      0 oonnnoo.onnnnnnnnnnnn..................................................................ooooonn
(PID.TID 0000.0001)     -1 nnnnnnoooooooooo...nn.....................................................hhhi........oooonnnn
(PID.TID 0000.0001) // =======================================================
(PID.TID 0000.0001) // END OF FIELD                                          =
(PID.TID 0000.0001) // =======================================================
(PID.TID 0000.0001) 
(PID.TID 0000.0001)  MDS_WRITE_FIELD: it,rec,kS,kL,kH=      60     1  15   1  15 file=U.0000000060
(PID.TID 0000.0001)  MDS_WRITE_FIELD: it,rec,kS,kL,kH=      60     1  15   1  15 file=V.0000000060
(PID.TID 0000.0001)  MDS_WRITE_FIELD: it,rec,kS,kL,kH=      60     1  15   1  15 file=T.0000000060
(PID.TID 0000.0001)  MDS_WRITE_FIELD: it,rec,kS,kL,kH=      60     1  15   1  15 file=S.0000000060
(PID.TID 0000.0001)  MDS_WRITE_FIELD: it,rec,kS,kL,kH=      60     1   1   1   1 file=Eta.0000000060
(PID.TID 0000.0001)  MDS_WRITE_FIELD: it,rec,kS,kL,kH=      60     1  15   1  15 file=W.0000000060
(PID.TID 0000.0001)  MDS_WRITE_FIELD: it,rec,kS,kL,kH=      60     1  15   1  15 file=PH.0000000060
(PID.TID 0000.0001)  MDS_WRITE_FIELD: it,rec,kS,kL,kH=      60     1   1   1   1 file=PHL.0000000060
(PID.TID 0000.0001)  MDS_WRITE_FIELD: it,rec,kS,kL,kH=      60     1   1   1   1 file=ETAtave.0000000060
(PID.TID 0000.0001)  MDS_WRITE_FIELD: it,rec,kS,kL,kH=      60     1  15   1  15 file=Ttave.0000000060
(PID.TID 0000.0001)  MDS_WRITE_FIELD: it,rec,kS,kL,kH=      60     1  15   1  15 file=Stave.0000000060
(PID.TID 0000.0001)  MDS_WRITE_FIELD: it,rec,kS,kL,kH=      60     1  15   1  15 file=uVeltave.0000000060
(PID.TID 0000.0001)  MDS_WRITE_FIELD: it,rec,kS,kL,kH=      60     1  15   1  15 file=vVeltave.0000000060
(PID.TID 0000.0001)  MDS_WRITE_FIELD: it,rec,kS,kL,kH=      60     1  15   1  15 file=wVeltave.0000000060
(PID.TID 0000.0001)  MDS_WRITE_FIELD: it,rec,kS,kL,kH=      60     1   1   1   1 file=Eta2tave.0000000060
(PID.TID 0000.0001)  MDS_WRITE_FIELD: it,rec,kS,kL,kH=      60     1  15   1  15 file=UTtave.0000000060
(PID.TID 0000.0001)  MDS_WRITE_FIELD: it,rec,kS,kL,kH=      60     1  15   1  15 file=VTtave.0000000060
(PID.TID 0000.0001)  MDS_WRITE_FIELD: it,rec,kS,kL,kH=      60     1  15   1  15 file=WTtave.0000000060
(PID.TID 0000.0001)  MDS_WRITE_FIELD: it,rec,kS,kL,kH=      60     1  15   1  15 file=UStave.0000000060
(PID.TID 0000.0001)  MDS_WRITE_FIELD: it,rec,kS,kL,kH=      60     1  15   1  15 file=VStave.0000000060
(PID.TID 0000.0001)  MDS_WRITE_FIELD: it,rec,kS,kL,kH=      60     1  15   1  15 file=WStave.0000000060
(PID.TID 0000.0001)  MDS_WRITE_FIELD: it,rec,kS,kL,kH=      60     1  15   1  15 file=TTtave.0000000060
(PID.TID 0000.0001)  MDS_WRITE_FIELD: it,rec,kS,kL,kH=      60     1  15   1  15 file=UUtave.0000000060
(PID.TID 0000.0001)  MDS_WRITE_FIELD: it,rec,kS,kL,kH=      60     1  15   1  15 file=VVtave.0000000060
(PID.TID 0000.0001)  MDS_WRITE_FIELD: it,rec,kS,kL,kH=      60     1  15   1  15 file=UVtave.0000000060
(PID.TID 0000.0001)  MDS_WRITE_FIELD: it,rec,kS,kL,kH=      60     1  15   1  15 file=Tdiftave.0000000060
(PID.TID 0000.0001)  MDS_WRITE_FIELD: it,rec,kS,kL,kH=      60     1  15   1  15 file=PhHytave.0000000060
(PID.TID 0000.0001)  MDS_WRITE_FIELD: it,rec,kS,kL,kH=      60     1   1   1   1 file=PHLtave.0000000060
(PID.TID 0000.0001)  MDS_WRITE_FIELD: it,rec,kS,kL,kH=      60     1   1   1   1 file=uFluxtave.0000000060
(PID.TID 0000.0001)  MDS_WRITE_FIELD: it,rec,kS,kL,kH=      60     1   1   1   1 file=vFluxtave.0000000060
(PID.TID 0000.0001)  MDS_WRITE_FIELD: it,rec,kS,kL,kH=      60     1   1   1   1 file=tFluxtave.0000000060
(PID.TID 0000.0001)  MDS_WRITE_FIELD: it,rec,kS,kL,kH=      60     1   1   1   1 file=sFluxtave.0000000060
(PID.TID 0000.0001)  MDS_WRITE_FIELD: it,rec,kS,kL,kH=      60     1   1   1   1 file=PHL2tave.0000000060
(PID.TID 0000.0001)  MDS_WRITE_FIELD: it,rec,kS,kL,kH=      60     1  15   1  15 file=Convtave.0000000060
(PID.TID 0000.0001) // Time-average data written, t-step        60
(PID.TID 0000.0001) 
(PID.TID 0000.0001)  MDS_WRITE_FIELD: it,rec,kS,kL,kH=      60     1  15   1  15 file=GM_Kwx-T.0000000060
(PID.TID 0000.0001)  MDS_WRITE_FIELD: it,rec,kS,kL,kH=      60     1  15   1  15 file=GM_Kwy-T.0000000060
(PID.TID 0000.0001)  MDS_WRITE_FIELD: it,rec,kS,kL,kH=      60     1  15   1  15 file=GM_Kwz-T.0000000060
(PID.TID 0000.0001)  MDS_WRITE_FIELD: it,rec,kS,kL,kH=      60     1  15   1  15 file=pickup_cd.0000000060
(PID.TID 0000.0001)  MDS_WRITE_FIELD: it,rec,kS,kL,kH=      60     2  15   1  15 file=pickup_cd.0000000060
(PID.TID 0000.0001)  MDS_WRITE_FIELD: it,rec,kS,kL,kH=      60     3  15   1  15 file=pickup_cd.0000000060
(PID.TID 0000.0001)  MDS_WRITE_FIELD: it,rec,kS,kL,kH=      60     4  15   1  15 file=pickup_cd.0000000060
(PID.TID 0000.0001)  MDS_WRITE_FIELD: it,rec,kS,kL,kH=      60    61   1   1   1 file=pickup_cd.0000000060
(PID.TID 0000.0001)  MDS_WRITE_FIELD: it,rec,kS,kL,kH=      60    -1  15   1  15 file=pickup.0000000060
(PID.TID 0000.0001)  MDS_WRITE_FIELD: it,rec,kS,kL,kH=      60    -2  15   1  15 file=pickup.0000000060
(PID.TID 0000.0001)  MDS_WRITE_FIELD: it,rec,kS,kL,kH=      60    -3  15   1  15 file=pickup.0000000060
(PID.TID 0000.0001)  MDS_WRITE_FIELD: it,rec,kS,kL,kH=      60    -4  15   1  15 file=pickup.0000000060
(PID.TID 0000.0001)  MDS_WRITE_FIELD: it,rec,kS,kL,kH=      60    -5  15   1  15 file=pickup.0000000060
(PID.TID 0000.0001)  MDS_WRITE_FIELD: it,rec,kS,kL,kH=      60    -6  15   1  15 file=pickup.0000000060
(PID.TID 0000.0001)  MDS_WRITE_FIELD: it,rec,kS,kL,kH=      60    -7  15   1  15 file=pickup.0000000060
(PID.TID 0000.0001)  MDS_WRITE_FIELD: it,rec,kS,kL,kH=      60    -8  15   1  15 file=pickup.0000000060
(PID.TID 0000.0001)  MDS_WRITE_FIELD: it,rec,kS,kL,kH=      60  -121   1   1   1 file=pickup.0000000060
(PID.TID 0000.0001)  MDS_WRITE_FIELD: it,rec,kS,kL,kH=      60  -122   1   1   1 file=pickup.0000000060
(PID.TID 0000.0001)  MDS_WRITE_FIELD: it,rec,kS,kL,kH=      60  -123   1   1   1 file=pickup.0000000060
(PID.TID 0000.0001) %CHECKPOINT        60 0000000060
 EXTERNAL_FIELDS_LOAD,        60 : iP,iLd,i0,i1=    2    3    2    3 ; Wght=  0.5000000000  0.5000000000
 EXTERNAL_FIELDS_LOAD: (fu0,1),fu,fv= -1.4435E-02 -2.7199E-02 -2.0817E-02 -9.1068E-03
 EXTERNAL_FIELDS_LOAD: SST,SSS,Q,E-P= -3.5788E-01  3.4500E+01  2.2794E+02  8.7290E-06
DEBUG_STATS_RL:          Uvel (THERMODYNAMICS)  min= -1.28068598717968E-01
DEBUG_STATS_RL:          Uvel (THERMODYNAMICS)  max=  1.32500292998170E-01
DEBUG_STATS_RL:          Uvel (THERMODYNAMICS) mean=  5.44557961464775E-03
DEBUG_STATS_RL:          Uvel (THERMODYNAMICS) S.D.=  2.09466352142189E-02
DEBUG_STATS_RL:          Vvel (THERMODYNAMICS)  min= -9.56602507571669E-02
DEBUG_STATS_RL:          Vvel (THERMODYNAMICS)  max=  1.39251393438763E-01
DEBUG_STATS_RL:          Vvel (THERMODYNAMICS) mean=  9.14086173286366E-04
DEBUG_STATS_RL:          Vvel (THERMODYNAMICS) S.D.=  1.40155999933822E-02
DEBUG_STATS_RL:          Wvel (THERMODYNAMICS)  min= -6.78249166465598E-05
DEBUG_STATS_RL:          Wvel (THERMODYNAMICS)  max=  9.70109296388013E-05
DEBUG_STATS_RL:          Wvel (THERMODYNAMICS) mean= -8.40789567663713E-08
DEBUG_STATS_RL:          Wvel (THERMODYNAMICS) S.D.=  1.02990310326805E-05
DEBUG_STATS_RL:         Theta (THERMODYNAMICS)  min= -1.96584340052266E+00
DEBUG_STATS_RL:         Theta (THERMODYNAMICS)  max=  3.05746224607117E+01
DEBUG_STATS_RL:         Theta (THERMODYNAMICS) mean=  3.22952887173715E+00
DEBUG_STATS_RL:         Theta (THERMODYNAMICS) S.D.=  5.87767255277753E+00
DEBUG_STATS_RL:          Salt (THERMODYNAMICS)  min=  9.99999999999997E-03
DEBUG_STATS_RL:          Salt (THERMODYNAMICS)  max=  3.74769313110211E+01
DEBUG_STATS_RL:          Salt (THERMODYNAMICS) mean=  1.88548216784771E+01
DEBUG_STATS_RL:          Salt (THERMODYNAMICS) S.D.=  1.73003525851654E+01
DEBUG_STATS_RL:         GtNm1 (THERMODYNAMICS)  min= -5.63810706992996E-06
DEBUG_STATS_RL:         GtNm1 (THERMODYNAMICS)  max=  3.00074755507760E-06
DEBUG_STATS_RL:         GtNm1 (THERMODYNAMICS) mean=  2.78638422797555E-09
DEBUG_STATS_RL:         GtNm1 (THERMODYNAMICS) S.D.=  1.74652491324580E-07
DEBUG_STATS_RL:         GsNm1 (THERMODYNAMICS)  min= -5.86400405262760E-07
DEBUG_STATS_RL:         GsNm1 (THERMODYNAMICS)  max=  4.16504350112294E-07
DEBUG_STATS_RL:         GsNm1 (THERMODYNAMICS) mean= -4.59943713622414E-10
DEBUG_STATS_RL:         GsNm1 (THERMODYNAMICS) S.D.=  1.75511652966701E-08
DEBUG_STATS_RL:                EtaN (DYNAMICS)  min= -1.81212481553898E+00
DEBUG_STATS_RL:                EtaN (DYNAMICS)  max=  7.45054835119171E-01
DEBUG_STATS_RL:                EtaN (DYNAMICS) mean= -1.78668677028419E-01
DEBUG_STATS_RL:                EtaN (DYNAMICS) S.D.=  6.89775659367986E-01
DEBUG_STATS_RL:                Uvel (DYNAMICS)  min= -1.28068598717968E-01
DEBUG_STATS_RL:                Uvel (DYNAMICS)  max=  1.32500292998170E-01
DEBUG_STATS_RL:                Uvel (DYNAMICS) mean=  5.44557961464775E-03
DEBUG_STATS_RL:                Uvel (DYNAMICS) S.D.=  2.09466352142189E-02
DEBUG_STATS_RL:                Vvel (DYNAMICS)  min= -9.56602507571669E-02
DEBUG_STATS_RL:                Vvel (DYNAMICS)  max=  1.39251393438763E-01
DEBUG_STATS_RL:                Vvel (DYNAMICS) mean=  9.14086173286366E-04
DEBUG_STATS_RL:                Vvel (DYNAMICS) S.D.=  1.40155999933822E-02
DEBUG_STATS_RL:                Wvel (DYNAMICS)  min= -6.78249166465598E-05
DEBUG_STATS_RL:                Wvel (DYNAMICS)  max=  9.70109296388013E-05
DEBUG_STATS_RL:                Wvel (DYNAMICS) mean= -8.40789567663713E-08
DEBUG_STATS_RL:                Wvel (DYNAMICS) S.D.=  1.02990310326805E-05
DEBUG_STATS_RL:               Theta (DYNAMICS)  min= -1.96584340052266E+00
DEBUG_STATS_RL:               Theta (DYNAMICS)  max=  3.05746224607117E+01
DEBUG_STATS_RL:               Theta (DYNAMICS) mean=  3.22952887173715E+00
DEBUG_STATS_RL:               Theta (DYNAMICS) S.D.=  5.87767255277753E+00
DEBUG_STATS_RL:                Salt (DYNAMICS)  min=  9.99999999999997E-03
DEBUG_STATS_RL:                Salt (DYNAMICS)  max=  3.74769313110211E+01
DEBUG_STATS_RL:                Salt (DYNAMICS) mean=  1.88548216784771E+01
DEBUG_STATS_RL:                Salt (DYNAMICS) S.D.=  1.73003525851654E+01
DEBUG_STATS_RL:                  Gu (DYNAMICS)  min= -1.27634693602079E-01
DEBUG_STATS_RL:                  Gu (DYNAMICS)  max=  1.22037221721307E-01
DEBUG_STATS_RL:                  Gu (DYNAMICS) mean=  5.44390099253837E-03
DEBUG_STATS_RL:                  Gu (DYNAMICS) S.D.=  2.12678611790634E-02
DEBUG_STATS_RL:                  Gv (DYNAMICS)  min= -9.88352611613339E-02
DEBUG_STATS_RL:                  Gv (DYNAMICS)  max=  1.40448948719320E-01
DEBUG_STATS_RL:                  Gv (DYNAMICS) mean=  3.37477465591925E-03
DEBUG_STATS_RL:                  Gv (DYNAMICS) S.D.=  1.53611303918259E-02
DEBUG_STATS_RL:               GuNm1 (DYNAMICS)  min= -9.79988576108897E-06
DEBUG_STATS_RL:               GuNm1 (DYNAMICS)  max=  9.34591443125641E-06
DEBUG_STATS_RL:               GuNm1 (DYNAMICS) mean=  4.71692293396755E-09
DEBUG_STATS_RL:               GuNm1 (DYNAMICS) S.D.=  1.19569079336907E-06
DEBUG_STATS_RL:               GvNm1 (DYNAMICS)  min= -9.90497176269458E-06
DEBUG_STATS_RL:               GvNm1 (DYNAMICS)  max=  1.59056617424449E-05
DEBUG_STATS_RL:               GvNm1 (DYNAMICS) mean=  7.41302815229421E-07
DEBUG_STATS_RL:               GvNm1 (DYNAMICS) S.D.=  2.64451005990011E-06
DEBUG_STATS_RL:               GtNm1 (DYNAMICS)  min= -5.63810706992996E-06
DEBUG_STATS_RL:               GtNm1 (DYNAMICS)  max=  3.00074755507760E-06
DEBUG_STATS_RL:               GtNm1 (DYNAMICS) mean=  2.78638422797555E-09
DEBUG_STATS_RL:               GtNm1 (DYNAMICS) S.D.=  1.74652491324580E-07
DEBUG_STATS_RL:               GsNm1 (DYNAMICS)  min= -5.86400405262760E-07
DEBUG_STATS_RL:               GsNm1 (DYNAMICS)  max=  4.16504350112294E-07
DEBUG_STATS_RL:               GsNm1 (DYNAMICS) mean= -4.59943713622414E-10
DEBUG_STATS_RL:               GsNm1 (DYNAMICS) S.D.=  1.75511652966701E-08
DEBUG_STATS_RL:    cg2d_b (SOLVE_FOR_PRESSURE)  min= -1.99916425553719E+04
DEBUG_STATS_RL:    cg2d_b (SOLVE_FOR_PRESSURE)  max=  2.55198179463344E+04
DEBUG_STATS_RL:    cg2d_b (SOLVE_FOR_PRESSURE) mean=  4.33485613067316E+00
DEBUG_STATS_RL:    cg2d_b (SOLVE_FOR_PRESSURE) S.D.=  3.89516270591145E+03
 cg2d: Sum(rhs),rhsMax =   3.93231329612663E-01  1.67620997013197E+00
(PID.TID 0000.0001)  cg2d: iter=     1 ; resid.=  8.69657690103569E-02
(PID.TID 0000.0001)  cg2d: iter=     2 ; resid.=  6.75802848333185E-02
(PID.TID 0000.0001)  cg2d: iter=     3 ; resid.=  5.82456922404683E-02
(PID.TID 0000.0001)  cg2d: iter=     4 ; resid.=  5.19514896908114E-02
(PID.TID 0000.0001)  cg2d: iter=     5 ; resid.=  4.39293590808010E-02
(PID.TID 0000.0001)  cg2d: iter=     6 ; resid.=  3.25355509575711E-02
(PID.TID 0000.0001)  cg2d: iter=     7 ; resid.=  2.81088310609441E-02
(PID.TID 0000.0001)  cg2d: iter=     8 ; resid.=  2.66559006983857E-02
(PID.TID 0000.0001)  cg2d: iter=     9 ; resid.=  2.30782356600564E-02
(PID.TID 0000.0001)  cg2d: iter=    10 ; resid.=  2.07756360906777E-02
(PID.TID 0000.0001)  cg2d: iter=    11 ; resid.=  1.80870777945656E-02
(PID.TID 0000.0001)  cg2d: iter=    12 ; resid.=  1.46683425090811E-02
(PID.TID 0000.0001)  cg2d: iter=    13 ; resid.=  1.18256756472808E-02
(PID.TID 0000.0001)  cg2d: iter=    14 ; resid.=  9.64683371990587E-03
(PID.TID 0000.0001)  cg2d: iter=    15 ; resid.=  7.94647728139219E-03
(PID.TID 0000.0001)  cg2d: iter=    16 ; resid.=  6.50426317653748E-03
(PID.TID 0000.0001)  cg2d: iter=    17 ; resid.=  5.44519630852231E-03
(PID.TID 0000.0001)  cg2d: iter=    18 ; resid.=  4.47088268766484E-03
(PID.TID 0000.0001)  cg2d: iter=    19 ; resid.=  3.66841988566654E-03
(PID.TID 0000.0001)  cg2d: iter=    20 ; resid.=  3.13778450425732E-03
(PID.TID 0000.0001)  cg2d: iter=    21 ; resid.=  2.82177026465831E-03
(PID.TID 0000.0001)  cg2d: iter=    22 ; resid.=  2.56763613124365E-03
(PID.TID 0000.0001)  cg2d: iter=    23 ; resid.=  2.09027040684547E-03
(PID.TID 0000.0001)  cg2d: iter=    24 ; resid.=  1.75820664474904E-03
(PID.TID 0000.0001)  cg2d: iter=    25 ; resid.=  1.48013566252907E-03
(PID.TID 0000.0001)  cg2d: iter=    26 ; resid.=  1.18879923057106E-03
(PID.TID 0000.0001)  cg2d: iter=    27 ; resid.=  1.02318681196621E-03
(PID.TID 0000.0001)  cg2d: iter=    28 ; resid.=  8.65579460991600E-04
(PID.TID 0000.0001)  cg2d: iter=    29 ; resid.=  7.41087567794956E-04
(PID.TID 0000.0001)  cg2d: iter=    30 ; resid.=  5.83367117161354E-04
(PID.TID 0000.0001)  cg2d: iter=    31 ; resid.=  4.91614960414365E-04
(PID.TID 0000.0001)  cg2d: iter=    32 ; resid.=  3.74948660727467E-04
(PID.TID 0000.0001)  cg2d: iter=    33 ; resid.=  3.05668953152964E-04
(PID.TID 0000.0001)  cg2d: iter=    34 ; resid.=  2.75795688121443E-04
(PID.TID 0000.0001)  cg2d: iter=    35 ; resid.=  2.24440978249293E-04
(PID.TID 0000.0001)  cg2d: iter=    36 ; resid.=  1.83347418429408E-04
(PID.TID 0000.0001)  cg2d: iter=    37 ; resid.=  1.40474485067857E-04
(PID.TID 0000.0001)  cg2d: iter=    38 ; resid.=  1.11953921759711E-04
(PID.TID 0000.0001)  cg2d: iter=    39 ; resid.=  9.37049936524008E-05
(PID.TID 0000.0001)  cg2d: iter=    40 ; resid.=  7.95463052328662E-05
(PID.TID 0000.0001)  cg2d: iter=    41 ; resid.=  7.06368216628671E-05
(PID.TID 0000.0001)  cg2d: iter=    42 ; resid.=  6.85050622147441E-05
(PID.TID 0000.0001)  cg2d: iter=    43 ; resid.=  6.14436354003393E-05
(PID.TID 0000.0001)  cg2d: iter=    44 ; resid.=  5.09280884193462E-05
(PID.TID 0000.0001)  cg2d: iter=    45 ; resid.=  4.29317402681313E-05
(PID.TID 0000.0001)  cg2d: iter=    46 ; resid.=  3.57574595247963E-05
(PID.TID 0000.0001)  cg2d: iter=    47 ; resid.=  2.91737624754121E-05
(PID.TID 0000.0001)  cg2d: iter=    48 ; resid.=  2.39226896410932E-05
(PID.TID 0000.0001)  cg2d: iter=    49 ; resid.=  1.94396842839017E-05
(PID.TID 0000.0001)  cg2d: iter=    50 ; resid.=  1.52860764049415E-05
(PID.TID 0000.0001)  cg2d: iter=    51 ; resid.=  1.18765265238239E-05
(PID.TID 0000.0001)  cg2d: iter=    52 ; resid.=  8.86646624469351E-06
(PID.TID 0000.0001)  cg2d: iter=    53 ; resid.=  7.39642740109989E-06
(PID.TID 0000.0001)  cg2d: iter=    54 ; resid.=  6.15838782402360E-06
(PID.TID 0000.0001)  cg2d: iter=    55 ; resid.=  5.32169357870165E-06
(PID.TID 0000.0001)  cg2d: iter=    56 ; resid.=  4.34025372582086E-06
(PID.TID 0000.0001)  cg2d: iter=    57 ; resid.=  3.46974258806173E-06
(PID.TID 0000.0001)  cg2d: iter=    58 ; resid.=  2.71749667639465E-06
(PID.TID 0000.0001)  cg2d: iter=    59 ; resid.=  2.03510140529532E-06
(PID.TID 0000.0001)  cg2d: iter=    60 ; resid.=  1.51702072463103E-06
(PID.TID 0000.0001)  cg2d: iter=    61 ; resid.=  1.19235332767716E-06
(PID.TID 0000.0001)  cg2d: iter=    62 ; resid.=  9.54946267611126E-07
(PID.TID 0000.0001)  cg2d: iter=    63 ; resid.=  7.34711369519374E-07
(PID.TID 0000.0001)  cg2d: iter=    64 ; resid.=  5.68803191247377E-07
(PID.TID 0000.0001)  cg2d: iter=    65 ; resid.=  4.41591751815623E-07
(PID.TID 0000.0001)  cg2d: iter=    66 ; resid.=  3.49988058582314E-07
(PID.TID 0000.0001)  cg2d: iter=    67 ; resid.=  2.96277810236388E-07
(PID.TID 0000.0001)  cg2d: iter=    68 ; resid.=  2.55880647399605E-07
(PID.TID 0000.0001)  cg2d: iter=    69 ; resid.=  2.14735457684297E-07
(PID.TID 0000.0001)  cg2d: iter=    70 ; resid.=  1.65908017027718E-07
(PID.TID 0000.0001)  cg2d: iter=    71 ; resid.=  1.38409752335976E-07
(PID.TID 0000.0001)  cg2d: iter=    72 ; resid.=  1.11331278321208E-07
(PID.TID 0000.0001)  cg2d: iter=    73 ; resid.=  9.16041172423250E-08
(PID.TID 0000.0001)  cg2d: iter=    74 ; resid.=  7.20560953398554E-08
(PID.TID 0000.0001)  cg2d: iter=    75 ; resid.=  5.38466061297292E-08
(PID.TID 0000.0001)  cg2d: iter=    76 ; resid.=  4.30801819820892E-08
(PID.TID 0000.0001)  cg2d: iter=    77 ; resid.=  3.33133507550022E-08
(PID.TID 0000.0001)  cg2d: iter=    78 ; resid.=  2.63048628184166E-08
(PID.TID 0000.0001)  cg2d: iter=    79 ; resid.=  2.22915169901761E-08
(PID.TID 0000.0001)  cg2d: iter=    80 ; resid.=  1.98535358120588E-08
(PID.TID 0000.0001)  cg2d: iter=    81 ; resid.=  1.76511416376063E-08
(PID.TID 0000.0001)  cg2d: iter=    82 ; resid.=  1.53524944631546E-08
(PID.TID 0000.0001)  cg2d: iter=    83 ; resid.=  1.32390545622136E-08
(PID.TID 0000.0001)  cg2d: iter=    84 ; resid.=  1.12564849266961E-08
(PID.TID 0000.0001)  cg2d: iter=    85 ; resid.=  8.45387040358416E-09
(PID.TID 0000.0001)  cg2d: iter=    86 ; resid.=  6.75190295179712E-09
(PID.TID 0000.0001)  cg2d: iter=    87 ; resid.=  5.31041448092741E-09
(PID.TID 0000.0001)  cg2d: iter=    88 ; resid.=  4.14530139208938E-09
(PID.TID 0000.0001)  cg2d: iter=    89 ; resid.=  3.28551345303996E-09
(PID.TID 0000.0001)  cg2d: iter=    90 ; resid.=  3.20506211313741E-09
(PID.TID 0000.0001)  cg2d: iter=    91 ; resid.=  2.79159137230971E-09
(PID.TID 0000.0001)  cg2d: iter=    92 ; resid.=  2.14644692260718E-09
(PID.TID 0000.0001)  cg2d: iter=    93 ; resid.=  1.57117320935510E-09
(PID.TID 0000.0001)  cg2d: iter=    94 ; resid.=  1.16697427607324E-09
(PID.TID 0000.0001)  cg2d: iter=    95 ; resid.=  9.81545820298801E-10
(PID.TID 0000.0001)  cg2d: iter=    96 ; resid.=  7.90911064909343E-10
(PID.TID 0000.0001)  cg2d: iter=    97 ; resid.=  5.37661973786680E-10
(PID.TID 0000.0001)  cg2d: iter=    98 ; resid.=  3.97544328141569E-10
(PID.TID 0000.0001)  cg2d: iter=    99 ; resid.=  3.13025767028013E-10
(PID.TID 0000.0001)  cg2d: iter=   100 ; resid.=  2.91671625814433E-10
(PID.TID 0000.0001)  cg2d: iter=   101 ; resid.=  2.62753527794620E-10
(PID.TID 0000.0001)  cg2d: iter=   102 ; resid.=  2.18813901023262E-10
(PID.TID 0000.0001)  cg2d: iter=   103 ; resid.=  1.76587980447524E-10
(PID.TID 0000.0001)  cg2d: iter=   104 ; resid.=  1.50052757489749E-10
(PID.TID 0000.0001)  cg2d: iter=   105 ; resid.=  1.34006338108915E-10
(PID.TID 0000.0001)  cg2d: iter=   106 ; resid.=  1.08922634303103E-10
(PID.TID 0000.0001)  cg2d: iter=   107 ; resid.=  8.27809698387660E-11
(PID.TID 0000.0001)  cg2d: iter=   108 ; resid.=  6.66249912228895E-11
(PID.TID 0000.0001)  cg2d: iter=   109 ; resid.=  5.02038686821310E-11
(PID.TID 0000.0001)  cg2d: iter=   110 ; resid.=  3.92383512715519E-11
(PID.TID 0000.0001)  cg2d: iter=   111 ; resid.=  2.77466695280918E-11
(PID.TID 0000.0001)  cg2d: iter=   112 ; resid.=  2.09538608735022E-11
(PID.TID 0000.0001)  cg2d: iter=   113 ; resid.=  1.64841674668677E-11
(PID.TID 0000.0001)  cg2d: iter=   114 ; resid.=  1.27612009210970E-11
(PID.TID 0000.0001)  cg2d: iter=   115 ; resid.=  9.45785318211174E-12
(PID.TID 0000.0001)  cg2d: iter=   116 ; resid.=  6.85464796694133E-12
(PID.TID 0000.0001)  cg2d: iter=   117 ; resid.=  5.17878338964895E-12
(PID.TID 0000.0001)  cg2d: iter=   118 ; resid.=  3.91681735042124E-12
(PID.TID 0000.0001)  cg2d: iter=   119 ; resid.=  2.81465749881771E-12
(PID.TID 0000.0001)  cg2d: iter=   120 ; resid.=  2.00603132594647E-12
(PID.TID 0000.0001)  cg2d: iter=   121 ; resid.=  1.41198716951635E-12
(PID.TID 0000.0001)  cg2d: iter=   122 ; resid.=  1.00977146095868E-12
(PID.TID 0000.0001)  cg2d: iter=   123 ; resid.=  8.61821834671054E-13
(PID.TID 0000.0001)  cg2d: iter=   124 ; resid.=  6.93529753853256E-13
(PID.TID 0000.0001)  cg2d: iter=   125 ; resid.=  5.69250698830087E-13
(PID.TID 0000.0001)  cg2d: iter=   126 ; resid.=  3.99081778022580E-13
(PID.TID 0000.0001)  cg2d: iter=   127 ; resid.=  2.92845721481530E-13
(PID.TID 0000.0001)  cg2d: iter=   128 ; resid.=  2.14216665297976E-13
(PID.TID 0000.0001)  cg2d: iter=   129 ; resid.=  1.43658563729105E-13
(PID.TID 0000.0001)  cg2d: iter=   130 ; resid.=  1.10629169592799E-13
(PID.TID 0000.0001)  cg2d: iter=   131 ; resid.=  8.04685441705481E-14
DEBUG_STATS_RL:    cg2d_x (SOLVE_FOR_PRESSURE)  min= -1.78487514260474E+01
DEBUG_STATS_RL:    cg2d_x (SOLVE_FOR_PRESSURE)  max=  7.23798921018459E+00
DEBUG_STATS_RL:    cg2d_x (SOLVE_FOR_PRESSURE) mean= -1.75755352916603E+00
DEBUG_STATS_RL:    cg2d_x (SOLVE_FOR_PRESSURE) S.D.=  6.81249706143718E+00
(PID.TID 0000.0001)      cg2d_init_res =   2.62308388062721E-01
(PID.TID 0000.0001)      cg2d_iters(min,last) =      -1     131
(PID.TID 0000.0001)      cg2d_last_res =   8.04685441705481E-14
(PID.TID 0000.0001) // =======================================================
(PID.TID 0000.0001) // Begin MONITOR dynamic field statistics
(PID.TID 0000.0001) // =======================================================
(PID.TID 0000.0001) %MON time_tsnumber                =                    61
(PID.TID 0000.0001) %MON time_secondsf                =   5.2704000000000E+06
(PID.TID 0000.0001) %MON dynstat_eta_max              =   7.3781745261816E-01
(PID.TID 0000.0001) %MON dynstat_eta_min              =  -1.8194445898112E+00
(PID.TID 0000.0001) %MON dynstat_eta_mean             =  -4.5228848679426E-03
(PID.TID 0000.0001) %MON dynstat_eta_sd               =   5.9490204296600E-01
(PID.TID 0000.0001) %MON dynstat_eta_del2             =   2.3752214613753E-03
(PID.TID 0000.0001) %MON dynstat_uvel_max             =   1.2696492839493E-01
(PID.TID 0000.0001) %MON dynstat_uvel_min             =  -1.2782324692474E-01
(PID.TID 0000.0001) %MON dynstat_uvel_mean            =   2.1608306858341E-03
(PID.TID 0000.0001) %MON dynstat_uvel_sd              =   1.3587457531849E-02
(PID.TID 0000.0001) %MON dynstat_uvel_del2            =   8.3986697795811E-05
(PID.TID 0000.0001) %MON dynstat_vvel_max             =   1.3800926529920E-01
(PID.TID 0000.0001) %MON dynstat_vvel_min             =  -9.4744372868088E-02
(PID.TID 0000.0001) %MON dynstat_vvel_mean            =   8.3773053449423E-05
(PID.TID 0000.0001) %MON dynstat_vvel_sd              =   8.7366463275479E-03
(PID.TID 0000.0001) %MON dynstat_vvel_del2            =   7.3008004058219E-05
(PID.TID 0000.0001) %MON dynstat_wvel_max             =   9.1668009534076E-05
(PID.TID 0000.0001) %MON dynstat_wvel_min             =  -6.7502322787721E-05
(PID.TID 0000.0001) %MON dynstat_wvel_mean            =  -1.2110695282369E-23
(PID.TID 0000.0001) %MON dynstat_wvel_sd              =   1.1580740867581E-05
(PID.TID 0000.0001) %MON dynstat_wvel_del2            =   1.1906168337433E-07
(PID.TID 0000.0001) %MON dynstat_theta_max            =   3.0574622460712E+01
(PID.TID 0000.0001) %MON dynstat_theta_min            =  -1.9658434005227E+00
(PID.TID 0000.0001) %MON dynstat_theta_mean           =   3.6333035697725E+00
(PID.TID 0000.0001) %MON dynstat_theta_sd             =   4.4239059061666E+00
(PID.TID 0000.0001) %MON dynstat_theta_del2           =   4.8941810181023E-03
(PID.TID 0000.0001) %MON dynstat_salt_max             =   3.7476931311021E+01
(PID.TID 0000.0001) %MON dynstat_salt_min             =   2.9884166804606E+01
(PID.TID 0000.0001) %MON dynstat_salt_mean            =   3.4727982839758E+01
(PID.TID 0000.0001) %MON dynstat_salt_sd              =   2.9643366003113E-01
(PID.TID 0000.0001) %MON dynstat_salt_del2            =   9.9037039149665E-04
(PID.TID 0000.0001) %MON dynstat_sst_max              =   3.0574622460712E+01
(PID.TID 0000.0001) %MON dynstat_sst_min              =  -1.9658434005227E+00
(PID.TID 0000.0001) %MON dynstat_sst_mean             =   1.9003236385321E+01
(PID.TID 0000.0001) %MON dynstat_sst_sd               =   9.0679863068153E+00
(PID.TID 0000.0001) %MON dynstat_sst_del2             =   2.8045017783303E-02
(PID.TID 0000.0001) %MON dynstat_sss_max              =   3.7456821015756E+01
(PID.TID 0000.0001) %MON dynstat_sss_min              =   2.9884166804606E+01
(PID.TID 0000.0001) %MON dynstat_sss_mean             =   3.4850044521758E+01
(PID.TID 0000.0001) %MON dynstat_sss_sd               =   9.8093424196621E-01
(PID.TID 0000.0001) %MON dynstat_sss_del2             =   8.0144154588369E-03
(PID.TID 0000.0001) %MON forcing_qnet_max             =   3.1647996520996E+02
(PID.TID 0000.0001) %MON forcing_qnet_min             =  -1.6834477996826E+02
(PID.TID 0000.0001) %MON forcing_qnet_mean            =  -1.0615158484544E+01
(PID.TID 0000.0001) %MON forcing_qnet_sd              =   5.9847119932196E+01
(PID.TID 0000.0001) %MON forcing_qnet_del2            =   8.8105768488919E-01
(PID.TID 0000.0001) %MON forcing_qsw_max              =   0.0000000000000E+00
(PID.TID 0000.0001) %MON forcing_qsw_min              =   0.0000000000000E+00
(PID.TID 0000.0001) %MON forcing_qsw_mean             =   0.0000000000000E+00
(PID.TID 0000.0001) %MON forcing_qsw_sd               =   0.0000000000000E+00
(PID.TID 0000.0001) %MON forcing_qsw_del2             =   0.0000000000000E+00
(PID.TID 0000.0001) %MON forcing_empmr_max            =   6.9195166929603E-05
(PID.TID 0000.0001) %MON forcing_empmr_min            =  -7.7276723686737E-05
(PID.TID 0000.0001) %MON forcing_empmr_mean           =   7.4706001679403E-07
(PID.TID 0000.0001) %MON forcing_empmr_sd             =   2.6871436583064E-05
(PID.TID 0000.0001) %MON forcing_empmr_del2           =   3.5417501506189E-07
(PID.TID 0000.0001) %MON forcing_fu_max               =   3.2843016088009E-01
(PID.TID 0000.0001) %MON forcing_fu_min               =  -2.9650179296732E-01
(PID.TID 0000.0001) %MON forcing_fu_mean              =   1.9043735458512E-02
(PID.TID 0000.0001) %MON forcing_fu_sd                =   9.5329430846208E-02
(PID.TID 0000.0001) %MON forcing_fu_del2              =   7.1458713394150E-04
(PID.TID 0000.0001) %MON forcing_fv_max               =   1.5295380353928E-01
(PID.TID 0000.0001) %MON forcing_fv_min               =  -1.7738871276379E-01
(PID.TID 0000.0001) %MON forcing_fv_mean              =  -7.3731501905024E-03
(PID.TID 0000.0001) %MON forcing_fv_sd                =   4.1902694266275E-02
(PID.TID 0000.0001) %MON forcing_fv_del2              =   4.6838107518311E-04
(PID.TID 0000.0001) %MON trAdv_CFL_u_max              =   3.8169973608042E-02
(PID.TID 0000.0001) %MON trAdv_CFL_v_max              =   2.6876804686509E-02
(PID.TID 0000.0001) %MON trAdv_CFL_w_max              =   2.7038191781605E-02
(PID.TID 0000.0001) %MON advcfl_uvel_max              =   3.9098454247954E-02
(PID.TID 0000.0001) %MON advcfl_vvel_max              =   2.6812986845127E-02
(PID.TID 0000.0001) %MON advcfl_wvel_max              =   2.9407031811714E-02
(PID.TID 0000.0001) %MON advcfl_W_hf_max              =   3.5708538628510E-02
(PID.TID 0000.0001) %MON pe_b_mean                    =   4.5289468403546E-04
(PID.TID 0000.0001) %MON ke_max                       =   1.3924211417844E-02
(PID.TID 0000.0001) %MON ke_mean                      =   1.2026706978959E-04
(PID.TID 0000.0001) %MON ke_vol                       =   1.3226782436723E+18
(PID.TID 0000.0001) %MON vort_r_min                   =  -3.8189728116380E-07
(PID.TID 0000.0001) %MON vort_r_max                   =   3.9926770748959E-07
(PID.TID 0000.0001) %MON vort_a_mean                  =  -2.5274807346445E-05
(PID.TID 0000.0001) %MON vort_a_sd                    =   7.3604605138151E-05
(PID.TID 0000.0001) %MON vort_p_mean                  =  -3.1845655735206E-05
(PID.TID 0000.0001) %MON vort_p_sd                    =   1.3162458102919E-04
(PID.TID 0000.0001) %MON surfExpan_theta_mean         =   1.6541961407748E-07
(PID.TID 0000.0001) %MON surfExpan_salt_mean          =  -9.5846911556384E-09
(PID.TID 0000.0001) // =======================================================
(PID.TID 0000.0001) // End MONITOR dynamic field statistics
(PID.TID 0000.0001) // =======================================================
 EXTERNAL_FIELDS_LOAD,        61 : iP,iLd,i0,i1=    2    3    2    3 ; Wght=  0.4666666667  0.5333333333
 EXTERNAL_FIELDS_LOAD: (fu0,1),fu,fv= -1.4435E-02 -2.7199E-02 -2.1242E-02 -8.5382E-03
 EXTERNAL_FIELDS_LOAD: SST,SSS,Q,E-P= -3.4628E-01  3.4505E+01  2.2710E+02  8.7524E-06
DEBUG_STATS_RL:          Uvel (THERMODYNAMICS)  min= -1.27823246924744E-01
DEBUG_STATS_RL:          Uvel (THERMODYNAMICS)  max=  1.26964928394929E-01
DEBUG_STATS_RL:          Uvel (THERMODYNAMICS) mean=  5.51161496335947E-03
DEBUG_STATS_RL:          Uvel (THERMODYNAMICS) S.D.=  2.09348892474996E-02
DEBUG_STATS_RL:          Vvel (THERMODYNAMICS)  min= -9.47443728680884E-02
DEBUG_STATS_RL:          Vvel (THERMODYNAMICS)  max=  1.38009265299197E-01
DEBUG_STATS_RL:          Vvel (THERMODYNAMICS) mean=  8.05143995110550E-04
DEBUG_STATS_RL:          Vvel (THERMODYNAMICS) S.D.=  1.39740873054667E-02
DEBUG_STATS_RL:          Wvel (THERMODYNAMICS)  min= -6.75023227877212E-05
DEBUG_STATS_RL:          Wvel (THERMODYNAMICS)  max=  9.16680095340763E-05
DEBUG_STATS_RL:          Wvel (THERMODYNAMICS) mean= -1.03447471724249E-07
DEBUG_STATS_RL:          Wvel (THERMODYNAMICS) S.D.=  1.02086572370261E-05
DEBUG_STATS_RL:         Theta (THERMODYNAMICS)  min= -1.96430517113928E+00
DEBUG_STATS_RL:         Theta (THERMODYNAMICS)  max=  3.05982803942485E+01
DEBUG_STATS_RL:         Theta (THERMODYNAMICS) mean=  3.22965585487573E+00
DEBUG_STATS_RL:         Theta (THERMODYNAMICS) S.D.=  5.87814327640444E+00
DEBUG_STATS_RL:          Salt (THERMODYNAMICS)  min=  9.99999999999997E-03
DEBUG_STATS_RL:          Salt (THERMODYNAMICS)  max=  3.74771682062097E+01
DEBUG_STATS_RL:          Salt (THERMODYNAMICS) mean=  1.88548044715070E+01
DEBUG_STATS_RL:          Salt (THERMODYNAMICS) S.D.=  1.73003373602304E+01
DEBUG_STATS_RL:         GtNm1 (THERMODYNAMICS)  min= -5.44912442560835E-06
DEBUG_STATS_RL:         GtNm1 (THERMODYNAMICS)  max=  2.87988562218080E-06
DEBUG_STATS_RL:         GtNm1 (THERMODYNAMICS) mean=  2.94459036980188E-09
DEBUG_STATS_RL:         GtNm1 (THERMODYNAMICS) S.D.=  1.71585181006164E-07
DEBUG_STATS_RL:         GsNm1 (THERMODYNAMICS)  min= -5.37794409582023E-07
DEBUG_STATS_RL:         GsNm1 (THERMODYNAMICS)  max=  3.70905763806716E-07
DEBUG_STATS_RL:         GsNm1 (THERMODYNAMICS) mean= -4.54984568520717E-10
DEBUG_STATS_RL:         GsNm1 (THERMODYNAMICS) S.D.=  1.71067697262872E-08
DEBUG_STATS_RL:                EtaN (DYNAMICS)  min= -1.81944458981124E+00
DEBUG_STATS_RL:                EtaN (DYNAMICS)  max=  7.37817452618159E-01
DEBUG_STATS_RL:                EtaN (DYNAMICS) mean= -1.79159381158617E-01
DEBUG_STATS_RL:                EtaN (DYNAMICS) S.D.=  6.94444144896757E-01
DEBUG_STATS_RL:                Uvel (DYNAMICS)  min= -1.27823246924744E-01
DEBUG_STATS_RL:                Uvel (DYNAMICS)  max=  1.26964928394929E-01
DEBUG_STATS_RL:                Uvel (DYNAMICS) mean=  5.51161496335947E-03
DEBUG_STATS_RL:                Uvel (DYNAMICS) S.D.=  2.09348892474996E-02
DEBUG_STATS_RL:                Vvel (DYNAMICS)  min= -9.47443728680884E-02
DEBUG_STATS_RL:                Vvel (DYNAMICS)  max=  1.38009265299197E-01
DEBUG_STATS_RL:                Vvel (DYNAMICS) mean=  8.05143995110550E-04
DEBUG_STATS_RL:                Vvel (DYNAMICS) S.D.=  1.39740873054667E-02
DEBUG_STATS_RL:                Wvel (DYNAMICS)  min= -6.75023227877212E-05
DEBUG_STATS_RL:                Wvel (DYNAMICS)  max=  9.16680095340763E-05
DEBUG_STATS_RL:                Wvel (DYNAMICS) mean= -1.03447471724249E-07
DEBUG_STATS_RL:                Wvel (DYNAMICS) S.D.=  1.02086572370261E-05
DEBUG_STATS_RL:               Theta (DYNAMICS)  min= -1.96430517113928E+00
DEBUG_STATS_RL:               Theta (DYNAMICS)  max=  3.05982803942485E+01
DEBUG_STATS_RL:               Theta (DYNAMICS) mean=  3.22965585487573E+00
DEBUG_STATS_RL:               Theta (DYNAMICS) S.D.=  5.87814327640444E+00
DEBUG_STATS_RL:                Salt (DYNAMICS)  min=  9.99999999999997E-03
DEBUG_STATS_RL:                Salt (DYNAMICS)  max=  3.74771682062097E+01
DEBUG_STATS_RL:                Salt (DYNAMICS) mean=  1.88548044715070E+01
DEBUG_STATS_RL:                Salt (DYNAMICS) S.D.=  1.73003373602304E+01
DEBUG_STATS_RL:                  Gu (DYNAMICS)  min= -1.27235825437936E-01
DEBUG_STATS_RL:                  Gu (DYNAMICS)  max=  1.16715757522257E-01
DEBUG_STATS_RL:                  Gu (DYNAMICS) mean=  5.50445822106566E-03
DEBUG_STATS_RL:                  Gu (DYNAMICS) S.D.=  2.13184651854912E-02
DEBUG_STATS_RL:                  Gv (DYNAMICS)  min= -1.02465851047649E-01
DEBUG_STATS_RL:                  Gv (DYNAMICS)  max=  1.38243782500862E-01
DEBUG_STATS_RL:                  Gv (DYNAMICS) mean=  3.30162535978486E-03
DEBUG_STATS_RL:                  Gv (DYNAMICS) S.D.=  1.52565528674181E-02
DEBUG_STATS_RL:               GuNm1 (DYNAMICS)  min= -9.83198591811810E-06
DEBUG_STATS_RL:               GuNm1 (DYNAMICS)  max=  9.35078235642723E-06
DEBUG_STATS_RL:               GuNm1 (DYNAMICS) mean=  4.98414441296324E-09
DEBUG_STATS_RL:               GuNm1 (DYNAMICS) S.D.=  1.19643091760626E-06
DEBUG_STATS_RL:               GvNm1 (DYNAMICS)  min= -9.96872264215131E-06
DEBUG_STATS_RL:               GvNm1 (DYNAMICS)  max=  1.58558736541861E-05
DEBUG_STATS_RL:               GvNm1 (DYNAMICS) mean=  7.40828768454912E-07
DEBUG_STATS_RL:               GvNm1 (DYNAMICS) S.D.=  2.64530770883970E-06
DEBUG_STATS_RL:               GtNm1 (DYNAMICS)  min= -5.44912442560835E-06
DEBUG_STATS_RL:               GtNm1 (DYNAMICS)  max=  2.87988562218080E-06
DEBUG_STATS_RL:               GtNm1 (DYNAMICS) mean=  2.94459036980188E-09
DEBUG_STATS_RL:               GtNm1 (DYNAMICS) S.D.=  1.71585181006164E-07
DEBUG_STATS_RL:               GsNm1 (DYNAMICS)  min= -5.37794409582023E-07
DEBUG_STATS_RL:               GsNm1 (DYNAMICS)  max=  3.70905763806716E-07
DEBUG_STATS_RL:               GsNm1 (DYNAMICS) mean= -4.54984568520717E-10
DEBUG_STATS_RL:               GsNm1 (DYNAMICS) S.D.=  1.71067697262872E-08
DEBUG_STATS_RL:    cg2d_b (SOLVE_FOR_PRESSURE)  min= -1.98795772132661E+04
DEBUG_STATS_RL:    cg2d_b (SOLVE_FOR_PRESSURE)  max=  2.54313453855880E+04
DEBUG_STATS_RL:    cg2d_b (SOLVE_FOR_PRESSURE) mean=  4.39357949220664E+00
DEBUG_STATS_RL:    cg2d_b (SOLVE_FOR_PRESSURE) S.D.=  3.90375569484904E+03
 cg2d: Sum(rhs),rhsMax =   3.99944885740172E-01  1.67039885546344E+00
(PID.TID 0000.0001)  cg2d: iter=     1 ; resid.=  8.81322966963070E-02
(PID.TID 0000.0001)  cg2d: iter=     2 ; resid.=  7.15767432311676E-02
(PID.TID 0000.0001)  cg2d: iter=     3 ; resid.=  6.42455811174716E-02
(PID.TID 0000.0001)  cg2d: iter=     4 ; resid.=  5.87852298143399E-02
(PID.TID 0000.0001)  cg2d: iter=     5 ; resid.=  5.02396427006905E-02
(PID.TID 0000.0001)  cg2d: iter=     6 ; resid.=  3.84764889172381E-02
(PID.TID 0000.0001)  cg2d: iter=     7 ; resid.=  3.40098825076025E-02
(PID.TID 0000.0001)  cg2d: iter=     8 ; resid.=  3.23199749333487E-02
(PID.TID 0000.0001)  cg2d: iter=     9 ; resid.=  2.74789898955324E-02
(PID.TID 0000.0001)  cg2d: iter=    10 ; resid.=  2.36488047213760E-02
(PID.TID 0000.0001)  cg2d: iter=    11 ; resid.=  1.97746408504236E-02
(PID.TID 0000.0001)  cg2d: iter=    12 ; resid.=  1.57828484972289E-02
(PID.TID 0000.0001)  cg2d: iter=    13 ; resid.=  1.27282842016419E-02
(PID.TID 0000.0001)  cg2d: iter=    14 ; resid.=  1.03593555549061E-02
(PID.TID 0000.0001)  cg2d: iter=    15 ; resid.=  8.48778371108122E-03
(PID.TID 0000.0001)  cg2d: iter=    16 ; resid.=  6.83545855499179E-03
(PID.TID 0000.0001)  cg2d: iter=    17 ; resid.=  5.85759264048841E-03
(PID.TID 0000.0001)  cg2d: iter=    18 ; resid.=  4.84917158110413E-03
(PID.TID 0000.0001)  cg2d: iter=    19 ; resid.=  4.03544650950606E-03
(PID.TID 0000.0001)  cg2d: iter=    20 ; resid.=  3.48141103895604E-03
(PID.TID 0000.0001)  cg2d: iter=    21 ; resid.=  3.15245262715179E-03
(PID.TID 0000.0001)  cg2d: iter=    22 ; resid.=  2.83397715997434E-03
(PID.TID 0000.0001)  cg2d: iter=    23 ; resid.=  2.28830500299772E-03
(PID.TID 0000.0001)  cg2d: iter=    24 ; resid.=  1.88657973822436E-03
(PID.TID 0000.0001)  cg2d: iter=    25 ; resid.=  1.57389658508156E-03
(PID.TID 0000.0001)  cg2d: iter=    26 ; resid.=  1.25624174037734E-03
(PID.TID 0000.0001)  cg2d: iter=    27 ; resid.=  1.06280852165357E-03
(PID.TID 0000.0001)  cg2d: iter=    28 ; resid.=  8.92980398973739E-04
(PID.TID 0000.0001)  cg2d: iter=    29 ; resid.=  7.54855094768824E-04
(PID.TID 0000.0001)  cg2d: iter=    30 ; resid.=  5.94794689305943E-04
(PID.TID 0000.0001)  cg2d: iter=    31 ; resid.=  5.01184512043770E-04
(PID.TID 0000.0001)  cg2d: iter=    32 ; resid.=  3.78498192943552E-04
(PID.TID 0000.0001)  cg2d: iter=    33 ; resid.=  3.09482232480601E-04
(PID.TID 0000.0001)  cg2d: iter=    34 ; resid.=  2.82159338016901E-04
(PID.TID 0000.0001)  cg2d: iter=    35 ; resid.=  2.35463415955541E-04
(PID.TID 0000.0001)  cg2d: iter=    36 ; resid.=  1.95958746077678E-04
(PID.TID 0000.0001)  cg2d: iter=    37 ; resid.=  1.53469452350338E-04
(PID.TID 0000.0001)  cg2d: iter=    38 ; resid.=  1.26911926914351E-04
(PID.TID 0000.0001)  cg2d: iter=    39 ; resid.=  1.09442432763255E-04
(PID.TID 0000.0001)  cg2d: iter=    40 ; resid.=  9.40686080448498E-05
(PID.TID 0000.0001)  cg2d: iter=    41 ; resid.=  8.26735594531916E-05
(PID.TID 0000.0001)  cg2d: iter=    42 ; resid.=  7.87857365713799E-05
(PID.TID 0000.0001)  cg2d: iter=    43 ; resid.=  6.94627560791088E-05
(PID.TID 0000.0001)  cg2d: iter=    44 ; resid.=  5.60431865718045E-05
(PID.TID 0000.0001)  cg2d: iter=    45 ; resid.=  4.73053356744036E-05
(PID.TID 0000.0001)  cg2d: iter=    46 ; resid.=  3.90632380208917E-05
(PID.TID 0000.0001)  cg2d: iter=    47 ; resid.=  3.13377188856461E-05
(PID.TID 0000.0001)  cg2d: iter=    48 ; resid.=  2.54491778573517E-05
(PID.TID 0000.0001)  cg2d: iter=    49 ; resid.=  2.11016477338804E-05
(PID.TID 0000.0001)  cg2d: iter=    50 ; resid.=  1.72758830134059E-05
(PID.TID 0000.0001)  cg2d: iter=    51 ; resid.=  1.39535591394562E-05
(PID.TID 0000.0001)  cg2d: iter=    52 ; resid.=  1.07646657488299E-05
(PID.TID 0000.0001)  cg2d: iter=    53 ; resid.=  9.22586695042859E-06
(PID.TID 0000.0001)  cg2d: iter=    54 ; resid.=  7.84697726408569E-06
(PID.TID 0000.0001)  cg2d: iter=    55 ; resid.=  6.90306859603958E-06
(PID.TID 0000.0001)  cg2d: iter=    56 ; resid.=  5.52952213295872E-06
(PID.TID 0000.0001)  cg2d: iter=    57 ; resid.=  4.31553180559438E-06
(PID.TID 0000.0001)  cg2d: iter=    58 ; resid.=  3.34488422686463E-06
(PID.TID 0000.0001)  cg2d: iter=    59 ; resid.=  2.47953155560362E-06
(PID.TID 0000.0001)  cg2d: iter=    60 ; resid.=  1.89632638492507E-06
(PID.TID 0000.0001)  cg2d: iter=    61 ; resid.=  1.54074176434722E-06
(PID.TID 0000.0001)  cg2d: iter=    62 ; resid.=  1.22837121009471E-06
(PID.TID 0000.0001)  cg2d: iter=    63 ; resid.=  9.66338147890906E-07
(PID.TID 0000.0001)  cg2d: iter=    64 ; resid.=  7.57545762796218E-07
(PID.TID 0000.0001)  cg2d: iter=    65 ; resid.=  6.04207351077280E-07
(PID.TID 0000.0001)  cg2d: iter=    66 ; resid.=  4.76529623661512E-07
(PID.TID 0000.0001)  cg2d: iter=    67 ; resid.=  3.91590371549914E-07
(PID.TID 0000.0001)  cg2d: iter=    68 ; resid.=  3.33750358470858E-07
(PID.TID 0000.0001)  cg2d: iter=    69 ; resid.=  2.68710722718813E-07
(PID.TID 0000.0001)  cg2d: iter=    70 ; resid.=  1.98962400079657E-07
(PID.TID 0000.0001)  cg2d: iter=    71 ; resid.=  1.59328393860170E-07
(PID.TID 0000.0001)  cg2d: iter=    72 ; resid.=  1.24355169788027E-07
(PID.TID 0000.0001)  cg2d: iter=    73 ; resid.=  1.01232118378989E-07
(PID.TID 0000.0001)  cg2d: iter=    74 ; resid.=  7.99152784988533E-08
(PID.TID 0000.0001)  cg2d: iter=    75 ; resid.=  6.18469786163963E-08
(PID.TID 0000.0001)  cg2d: iter=    76 ; resid.=  5.19611903340275E-08
(PID.TID 0000.0001)  cg2d: iter=    77 ; resid.=  4.17553560555972E-08
(PID.TID 0000.0001)  cg2d: iter=    78 ; resid.=  3.46211366328826E-08
(PID.TID 0000.0001)  cg2d: iter=    79 ; resid.=  3.05750318711496E-08
(PID.TID 0000.0001)  cg2d: iter=    80 ; resid.=  2.83046082494417E-08
(PID.TID 0000.0001)  cg2d: iter=    81 ; resid.=  2.48008937551962E-08
(PID.TID 0000.0001)  cg2d: iter=    82 ; resid.=  2.08439262563337E-08
(PID.TID 0000.0001)  cg2d: iter=    83 ; resid.=  1.71328066384519E-08
(PID.TID 0000.0001)  cg2d: iter=    84 ; resid.=  1.44484719757776E-08
(PID.TID 0000.0001)  cg2d: iter=    85 ; resid.=  1.09304752887154E-08
(PID.TID 0000.0001)  cg2d: iter=    86 ; resid.=  8.78412909715605E-09
(PID.TID 0000.0001)  cg2d: iter=    87 ; resid.=  6.81465692019160E-09
(PID.TID 0000.0001)  cg2d: iter=    88 ; resid.=  5.26011483424194E-09
(PID.TID 0000.0001)  cg2d: iter=    89 ; resid.=  4.34486098329574E-09
(PID.TID 0000.0001)  cg2d: iter=    90 ; resid.=  4.20274810844014E-09
(PID.TID 0000.0001)  cg2d: iter=    91 ; resid.=  3.41118674642677E-09
(PID.TID 0000.0001)  cg2d: iter=    92 ; resid.=  2.46680082087000E-09
(PID.TID 0000.0001)  cg2d: iter=    93 ; resid.=  1.72300126776124E-09
(PID.TID 0000.0001)  cg2d: iter=    94 ; resid.=  1.26751745718071E-09
(PID.TID 0000.0001)  cg2d: iter=    95 ; resid.=  1.04078624571898E-09
(PID.TID 0000.0001)  cg2d: iter=    96 ; resid.=  8.15551422187903E-10
(PID.TID 0000.0001)  cg2d: iter=    97 ; resid.=  5.49168640106677E-10
(PID.TID 0000.0001)  cg2d: iter=    98 ; resid.=  3.98119878834717E-10
(PID.TID 0000.0001)  cg2d: iter=    99 ; resid.=  3.12515289875770E-10
(PID.TID 0000.0001)  cg2d: iter=   100 ; resid.=  2.82827228673964E-10
(PID.TID 0000.0001)  cg2d: iter=   101 ; resid.=  2.46579524621747E-10
(PID.TID 0000.0001)  cg2d: iter=   102 ; resid.=  1.96855469184701E-10
(PID.TID 0000.0001)  cg2d: iter=   103 ; resid.=  1.51052151166083E-10
(PID.TID 0000.0001)  cg2d: iter=   104 ; resid.=  1.26840810890436E-10
(PID.TID 0000.0001)  cg2d: iter=   105 ; resid.=  1.17658469340851E-10
(PID.TID 0000.0001)  cg2d: iter=   106 ; resid.=  1.00172414341861E-10
(PID.TID 0000.0001)  cg2d: iter=   107 ; resid.=  8.04720354775494E-11
(PID.TID 0000.0001)  cg2d: iter=   108 ; resid.=  6.77115876057330E-11
(PID.TID 0000.0001)  cg2d: iter=   109 ; resid.=  5.33754028973097E-11
(PID.TID 0000.0001)  cg2d: iter=   110 ; resid.=  4.28813143269110E-11
(PID.TID 0000.0001)  cg2d: iter=   111 ; resid.=  3.14105855324307E-11
(PID.TID 0000.0001)  cg2d: iter=   112 ; resid.=  2.42055942819366E-11
(PID.TID 0000.0001)  cg2d: iter=   113 ; resid.=  1.88181824316542E-11
(PID.TID 0000.0001)  cg2d: iter=   114 ; resid.=  1.41955891386615E-11
(PID.TID 0000.0001)  cg2d: iter=   115 ; resid.=  1.02091328195286E-11
(PID.TID 0000.0001)  cg2d: iter=   116 ; resid.=  7.40830977636172E-12
(PID.TID 0000.0001)  cg2d: iter=   117 ; resid.=  5.66990737361349E-12
(PID.TID 0000.0001)  cg2d: iter=   118 ; resid.=  4.29242039949689E-12
(PID.TID 0000.0001)  cg2d: iter=   119 ; resid.=  3.18265353834500E-12
(PID.TID 0000.0001)  cg2d: iter=   120 ; resid.=  2.37092012934795E-12
(PID.TID 0000.0001)  cg2d: iter=   121 ; resid.=  1.73088541630096E-12
(PID.TID 0000.0001)  cg2d: iter=   122 ; resid.=  1.32317022086450E-12
(PID.TID 0000.0001)  cg2d: iter=   123 ; resid.=  1.20551682489440E-12
(PID.TID 0000.0001)  cg2d: iter=   124 ; resid.=  1.01021745959755E-12
(PID.TID 0000.0001)  cg2d: iter=   125 ; resid.=  8.03971735675921E-13
(PID.TID 0000.0001)  cg2d: iter=   126 ; resid.=  5.39287769194713E-13
(PID.TID 0000.0001)  cg2d: iter=   127 ; resid.=  3.79469427099768E-13
(PID.TID 0000.0001)  cg2d: iter=   128 ; resid.=  2.65391620073677E-13
(PID.TID 0000.0001)  cg2d: iter=   129 ; resid.=  1.75592764966428E-13
(PID.TID 0000.0001)  cg2d: iter=   130 ; resid.=  1.33270316275677E-13
(PID.TID 0000.0001)  cg2d: iter=   131 ; resid.=  9.89791889899570E-14
DEBUG_STATS_RL:    cg2d_x (SOLVE_FOR_PRESSURE)  min= -1.78778029314206E+01
DEBUG_STATS_RL:    cg2d_x (SOLVE_FOR_PRESSURE)  max=  7.39142743315630E+00
DEBUG_STATS_RL:    cg2d_x (SOLVE_FOR_PRESSURE) mean= -1.76433408944797E+00
DEBUG_STATS_RL:    cg2d_x (SOLVE_FOR_PRESSURE) S.D.=  6.86522332282215E+00
(PID.TID 0000.0001)      cg2d_init_res =   2.60472972895525E-01
(PID.TID 0000.0001)      cg2d_iters(min,last) =      -1     131
(PID.TID 0000.0001)      cg2d_last_res =   9.89791889899570E-14
(PID.TID 0000.0001) // =======================================================
(PID.TID 0000.0001) // Begin MONITOR dynamic field statistics
(PID.TID 0000.0001) // =======================================================
(PID.TID 0000.0001) %MON time_tsnumber                =                    62
(PID.TID 0000.0001) %MON time_secondsf                =   5.3568000000000E+06
(PID.TID 0000.0001) %MON dynstat_eta_max              =   7.5345845394044E-01
(PID.TID 0000.0001) %MON dynstat_eta_min              =  -1.8224060072804E+00
(PID.TID 0000.0001) %MON dynstat_eta_mean             =  -4.5841554142451E-03
(PID.TID 0000.0001) %MON dynstat_eta_sd               =   6.0011326598545E-01
(PID.TID 0000.0001) %MON dynstat_eta_del2             =   2.3799199023188E-03
(PID.TID 0000.0001) %MON dynstat_uvel_max             =   1.2175179482960E-01
(PID.TID 0000.0001) %MON dynstat_uvel_min             =  -1.2750370019280E-01
(PID.TID 0000.0001) %MON dynstat_uvel_mean            =   2.2037845873178E-03
(PID.TID 0000.0001) %MON dynstat_uvel_sd              =   1.3607622332248E-02
(PID.TID 0000.0001) %MON dynstat_uvel_del2            =   8.4248462024074E-05
(PID.TID 0000.0001) %MON dynstat_vvel_max             =   1.3736874454543E-01
(PID.TID 0000.0001) %MON dynstat_vvel_min             =  -9.3132021939733E-02
(PID.TID 0000.0001) %MON dynstat_vvel_mean            =   7.7011952527865E-05
(PID.TID 0000.0001) %MON dynstat_vvel_sd              =   8.7154641540691E-03
(PID.TID 0000.0001) %MON dynstat_vvel_del2            =   7.3110219949955E-05
(PID.TID 0000.0001) %MON dynstat_wvel_max             =   9.5153663725209E-05
(PID.TID 0000.0001) %MON dynstat_wvel_min             =  -6.9150056514847E-05
(PID.TID 0000.0001) %MON dynstat_wvel_mean            =  -2.1743056047200E-22
(PID.TID 0000.0001) %MON dynstat_wvel_sd              =   1.1466327999914E-05
(PID.TID 0000.0001) %MON dynstat_wvel_del2            =   1.1763148461943E-07
(PID.TID 0000.0001) %MON dynstat_theta_max            =   3.0598280394249E+01
(PID.TID 0000.0001) %MON dynstat_theta_min            =  -1.9643051711393E+00
(PID.TID 0000.0001) %MON dynstat_theta_mean           =   3.6333575799777E+00
(PID.TID 0000.0001) %MON dynstat_theta_sd             =   4.4241139037351E+00
(PID.TID 0000.0001) %MON dynstat_theta_del2           =   4.8969869509776E-03
(PID.TID 0000.0001) %MON dynstat_salt_max             =   3.7477168206210E+01
(PID.TID 0000.0001) %MON dynstat_salt_min             =   2.9886653543434E+01
(PID.TID 0000.0001) %MON dynstat_salt_mean            =   3.4727984121453E+01
(PID.TID 0000.0001) %MON dynstat_salt_sd              =   2.9644088240990E-01
(PID.TID 0000.0001) %MON dynstat_salt_del2            =   9.9040130183522E-04
(PID.TID 0000.0001) %MON dynstat_sst_max              =   3.0598280394249E+01
(PID.TID 0000.0001) %MON dynstat_sst_min              =  -1.9643051711393E+00
(PID.TID 0000.0001) %MON dynstat_sst_mean             =   1.9008309936071E+01
(PID.TID 0000.0001) %MON dynstat_sst_sd               =   9.0724854401822E+00
(PID.TID 0000.0001) %MON dynstat_sst_del2             =   2.8082736393838E-02
(PID.TID 0000.0001) %MON dynstat_sss_max              =   3.7457607718739E+01
(PID.TID 0000.0001) %MON dynstat_sss_min              =   2.9886653543434E+01
(PID.TID 0000.0001) %MON dynstat_sss_mean             =   3.4849705394240E+01
(PID.TID 0000.0001) %MON dynstat_sss_sd               =   9.8126667229543E-01
(PID.TID 0000.0001) %MON dynstat_sss_del2             =   8.0235107866249E-03
(PID.TID 0000.0001) %MON forcing_qnet_max             =   3.1368181355794E+02
(PID.TID 0000.0001) %MON forcing_qnet_min             =  -1.6804550069173E+02
(PID.TID 0000.0001) %MON forcing_qnet_mean            =  -1.0391818984917E+01
(PID.TID 0000.0001) %MON forcing_qnet_sd              =   5.8698172444596E+01
(PID.TID 0000.0001) %MON forcing_qnet_del2            =   8.7784570715978E-01
(PID.TID 0000.0001) %MON forcing_qsw_max              =   0.0000000000000E+00
(PID.TID 0000.0001) %MON forcing_qsw_min              =   0.0000000000000E+00
(PID.TID 0000.0001) %MON forcing_qsw_mean             =   0.0000000000000E+00
(PID.TID 0000.0001) %MON forcing_qsw_sd               =   0.0000000000000E+00
(PID.TID 0000.0001) %MON forcing_qsw_del2             =   0.0000000000000E+00
(PID.TID 0000.0001) %MON forcing_empmr_max            =   6.9189410586053E-05
(PID.TID 0000.0001) %MON forcing_empmr_min            =  -7.7675903279821E-05
(PID.TID 0000.0001) %MON forcing_empmr_mean           =   7.3397008591968E-07
(PID.TID 0000.0001) %MON forcing_empmr_sd             =   2.6815629393034E-05
(PID.TID 0000.0001) %MON forcing_empmr_del2           =   3.5456126682160E-07
(PID.TID 0000.0001) %MON forcing_fu_max               =   3.3037157654762E-01
(PID.TID 0000.0001) %MON forcing_fu_min               =  -3.0188642243544E-01
(PID.TID 0000.0001) %MON forcing_fu_mean              =   1.9137935047970E-02
(PID.TID 0000.0001) %MON forcing_fu_sd                =   9.5650640697018E-02
(PID.TID 0000.0001) %MON forcing_fu_del2              =   7.1874318032025E-04
(PID.TID 0000.0001) %MON forcing_fv_max               =   1.5187646150589E-01
(PID.TID 0000.0001) %MON forcing_fv_min               =  -1.7590267658234E-01
(PID.TID 0000.0001) %MON forcing_fv_mean              =  -7.3835785404719E-03
(PID.TID 0000.0001) %MON forcing_fv_sd                =   4.1829040773244E-02
(PID.TID 0000.0001) %MON forcing_fv_del2              =   4.6738042004890E-04
(PID.TID 0000.0001) %MON trAdv_CFL_u_max              =   3.9106395423649E-02
(PID.TID 0000.0001) %MON trAdv_CFL_v_max              =   2.6637062486605E-02
(PID.TID 0000.0001) %MON trAdv_CFL_w_max              =   2.6059412116986E-02
(PID.TID 0000.0001) %MON advcfl_uvel_max              =   3.9925062924434E-02
(PID.TID 0000.0001) %MON advcfl_vvel_max              =   2.6688543935388E-02
(PID.TID 0000.0001) %MON advcfl_wvel_max              =   2.7822554818559E-02
(PID.TID 0000.0001) %MON advcfl_W_hf_max              =   3.3784530851108E-02
(PID.TID 0000.0001) %MON pe_b_mean                    =   4.6086422377356E-04
(PID.TID 0000.0001) %MON ke_max                       =   1.3667550888733E-02
(PID.TID 0000.0001) %MON ke_mean                      =   1.2043493165989E-04
(PID.TID 0000.0001) %MON ke_vol                       =   1.3226782436723E+18
(PID.TID 0000.0001) %MON vort_r_min                   =  -3.6769364098227E-07
(PID.TID 0000.0001) %MON vort_r_max                   =   4.0106905820026E-07
(PID.TID 0000.0001) %MON vort_a_mean                  =  -2.5274807312597E-05
(PID.TID 0000.0001) %MON vort_a_sd                    =   7.3604615686238E-05
(PID.TID 0000.0001) %MON vort_p_mean                  =  -3.1845655692558E-05
(PID.TID 0000.0001) %MON vort_p_sd                    =   1.3162459953707E-04
(PID.TID 0000.0001) %MON surfExpan_theta_mean         =   2.0185328344726E-07
(PID.TID 0000.0001) %MON surfExpan_salt_mean          =  -2.6192625355726E-08
(PID.TID 0000.0001) // =======================================================
(PID.TID 0000.0001) // End MONITOR dynamic field statistics
(PID.TID 0000.0001) // =======================================================
 EXTERNAL_FIELDS_LOAD,        62 : iP,iLd,i0,i1=    2    3    2    3 ; Wght=  0.4333333333  0.5666666667
 EXTERNAL_FIELDS_LOAD: (fu0,1),fu,fv= -1.4435E-02 -2.7199E-02 -2.1668E-02 -7.9696E-03
 EXTERNAL_FIELDS_LOAD: SST,SSS,Q,E-P= -3.3468E-01  3.4511E+01  2.2627E+02  8.7759E-06
DEBUG_STATS_RL:          Uvel (THERMODYNAMICS)  min= -1.27503700192800E-01
DEBUG_STATS_RL:          Uvel (THERMODYNAMICS)  max=  1.21751794829601E-01
DEBUG_STATS_RL:          Uvel (THERMODYNAMICS) mean=  5.57479987058024E-03
DEBUG_STATS_RL:          Uvel (THERMODYNAMICS) S.D.=  2.09813975344316E-02
DEBUG_STATS_RL:          Vvel (THERMODYNAMICS)  min= -9.31320219397334E-02
DEBUG_STATS_RL:          Vvel (THERMODYNAMICS)  max=  1.37368744545430E-01
DEBUG_STATS_RL:          Vvel (THERMODYNAMICS) mean=  7.05288833576415E-04
DEBUG_STATS_RL:          Vvel (THERMODYNAMICS) S.D.=  1.39275859080414E-02
DEBUG_STATS_RL:          Wvel (THERMODYNAMICS)  min= -6.91500565148466E-05
DEBUG_STATS_RL:          Wvel (THERMODYNAMICS)  max=  9.51536637252090E-05
DEBUG_STATS_RL:          Wvel (THERMODYNAMICS) mean= -1.19827949650412E-07
DEBUG_STATS_RL:          Wvel (THERMODYNAMICS) S.D.=  1.01095695789975E-05
DEBUG_STATS_RL:         Theta (THERMODYNAMICS)  min= -1.96277328787578E+00
DEBUG_STATS_RL:         Theta (THERMODYNAMICS)  max=  3.06217758408466E+01
DEBUG_STATS_RL:         Theta (THERMODYNAMICS) mean=  3.22978886906388E+00
DEBUG_STATS_RL:         Theta (THERMODYNAMICS) S.D.=  5.87860830706001E+00
DEBUG_STATS_RL:          Salt (THERMODYNAMICS)  min=  9.99999999999997E-03
DEBUG_STATS_RL:          Salt (THERMODYNAMICS)  max=  3.74773346739463E+01
DEBUG_STATS_RL:          Salt (THERMODYNAMICS) mean=  1.88547880446852E+01
DEBUG_STATS_RL:          Salt (THERMODYNAMICS) S.D.=  1.73003228669947E+01
DEBUG_STATS_RL:         GtNm1 (THERMODYNAMICS)  min= -5.47834353136152E-06
DEBUG_STATS_RL:         GtNm1 (THERMODYNAMICS)  max=  2.91197505006635E-06
DEBUG_STATS_RL:         GtNm1 (THERMODYNAMICS) mean=  3.10955616485266E-09
DEBUG_STATS_RL:         GtNm1 (THERMODYNAMICS) S.D.=  1.70072287666999E-07
DEBUG_STATS_RL:         GsNm1 (THERMODYNAMICS)  min= -5.76264650341491E-07
DEBUG_STATS_RL:         GsNm1 (THERMODYNAMICS)  max=  4.06837825493190E-07
DEBUG_STATS_RL:         GsNm1 (THERMODYNAMICS) mean= -4.40598669784766E-10
DEBUG_STATS_RL:         GsNm1 (THERMODYNAMICS) S.D.=  1.69198821637055E-08
DEBUG_STATS_RL:                EtaN (DYNAMICS)  min= -1.82240600728042E+00
DEBUG_STATS_RL:                EtaN (DYNAMICS)  max=  7.53458453940442E-01
DEBUG_STATS_RL:                EtaN (DYNAMICS) mean= -1.79850569770437E-01
DEBUG_STATS_RL:                EtaN (DYNAMICS) S.D.=  6.99818891215304E-01
DEBUG_STATS_RL:                Uvel (DYNAMICS)  min= -1.27503700192800E-01
DEBUG_STATS_RL:                Uvel (DYNAMICS)  max=  1.21751794829601E-01
DEBUG_STATS_RL:                Uvel (DYNAMICS) mean=  5.57479987058024E-03
DEBUG_STATS_RL:                Uvel (DYNAMICS) S.D.=  2.09813975344316E-02
DEBUG_STATS_RL:                Vvel (DYNAMICS)  min= -9.31320219397334E-02
DEBUG_STATS_RL:                Vvel (DYNAMICS)  max=  1.37368744545430E-01
DEBUG_STATS_RL:                Vvel (DYNAMICS) mean=  7.05288833576415E-04
DEBUG_STATS_RL:                Vvel (DYNAMICS) S.D.=  1.39275859080414E-02
DEBUG_STATS_RL:                Wvel (DYNAMICS)  min= -6.91500565148466E-05
DEBUG_STATS_RL:                Wvel (DYNAMICS)  max=  9.51536637252090E-05
DEBUG_STATS_RL:                Wvel (DYNAMICS) mean= -1.19827949650412E-07
DEBUG_STATS_RL:                Wvel (DYNAMICS) S.D.=  1.01095695789975E-05
DEBUG_STATS_RL:               Theta (DYNAMICS)  min= -1.96277328787578E+00
DEBUG_STATS_RL:               Theta (DYNAMICS)  max=  3.06217758408466E+01
DEBUG_STATS_RL:               Theta (DYNAMICS) mean=  3.22978886906388E+00
DEBUG_STATS_RL:               Theta (DYNAMICS) S.D.=  5.87860830706001E+00
DEBUG_STATS_RL:                Salt (DYNAMICS)  min=  9.99999999999997E-03
DEBUG_STATS_RL:                Salt (DYNAMICS)  max=  3.74773346739463E+01
DEBUG_STATS_RL:                Salt (DYNAMICS) mean=  1.88547880446852E+01
DEBUG_STATS_RL:                Salt (DYNAMICS) S.D.=  1.73003228669947E+01
DEBUG_STATS_RL:                  Gu (DYNAMICS)  min= -1.26760308628212E-01
DEBUG_STATS_RL:                  Gu (DYNAMICS)  max=  1.20384328566582E-01
DEBUG_STATS_RL:                  Gu (DYNAMICS) mean=  5.56241971698810E-03
DEBUG_STATS_RL:                  Gu (DYNAMICS) S.D.=  2.14214111409901E-02
DEBUG_STATS_RL:                  Gv (DYNAMICS)  min= -1.05108759643996E-01
DEBUG_STATS_RL:                  Gv (DYNAMICS)  max=  1.38480163228795E-01
DEBUG_STATS_RL:                  Gv (DYNAMICS) mean=  3.23897493843262E-03
DEBUG_STATS_RL:                  Gv (DYNAMICS) S.D.=  1.51507556281665E-02
DEBUG_STATS_RL:               GuNm1 (DYNAMICS)  min= -9.86666852340980E-06
DEBUG_STATS_RL:               GuNm1 (DYNAMICS)  max=  9.35094534811410E-06
DEBUG_STATS_RL:               GuNm1 (DYNAMICS) mean=  5.20192618204491E-09
DEBUG_STATS_RL:               GuNm1 (DYNAMICS) S.D.=  1.19717023646932E-06
DEBUG_STATS_RL:               GvNm1 (DYNAMICS)  min= -1.00265473860755E-05
DEBUG_STATS_RL:               GvNm1 (DYNAMICS)  max=  1.58108974413854E-05
DEBUG_STATS_RL:               GvNm1 (DYNAMICS) mean=  7.40381617239527E-07
DEBUG_STATS_RL:               GvNm1 (DYNAMICS) S.D.=  2.64551219428780E-06
DEBUG_STATS_RL:               GtNm1 (DYNAMICS)  min= -5.47834353136152E-06
DEBUG_STATS_RL:               GtNm1 (DYNAMICS)  max=  2.91197505006635E-06
DEBUG_STATS_RL:               GtNm1 (DYNAMICS) mean=  3.10955616485266E-09
DEBUG_STATS_RL:               GtNm1 (DYNAMICS) S.D.=  1.70072287666999E-07
DEBUG_STATS_RL:               GsNm1 (DYNAMICS)  min= -5.76264650341491E-07
DEBUG_STATS_RL:               GsNm1 (DYNAMICS)  max=  4.06837825493190E-07
DEBUG_STATS_RL:               GsNm1 (DYNAMICS) mean= -4.40598669784766E-10
DEBUG_STATS_RL:               GsNm1 (DYNAMICS) S.D.=  1.69198821637055E-08
DEBUG_STATS_RL:    cg2d_b (SOLVE_FOR_PRESSURE)  min= -1.97570408643819E+04
DEBUG_STATS_RL:    cg2d_b (SOLVE_FOR_PRESSURE)  max=  2.53313219687177E+04
DEBUG_STATS_RL:    cg2d_b (SOLVE_FOR_PRESSURE) mean=  4.45125555663725E+00
DEBUG_STATS_RL:    cg2d_b (SOLVE_FOR_PRESSURE) S.D.=  3.91062849975271E+03
 cg2d: Sum(rhs),rhsMax =   4.06795058952766E-01  1.66382904963813E+00
(PID.TID 0000.0001)  cg2d: iter=     1 ; resid.=  8.99968253288758E-02
(PID.TID 0000.0001)  cg2d: iter=     2 ; resid.=  7.65906236814654E-02
(PID.TID 0000.0001)  cg2d: iter=     3 ; resid.=  7.13263563954687E-02
(PID.TID 0000.0001)  cg2d: iter=     4 ; resid.=  6.59478129984039E-02
(PID.TID 0000.0001)  cg2d: iter=     5 ; resid.=  5.70671337047192E-02
(PID.TID 0000.0001)  cg2d: iter=     6 ; resid.=  4.53247423904334E-02
(PID.TID 0000.0001)  cg2d: iter=     7 ; resid.=  4.02713839837028E-02
(PID.TID 0000.0001)  cg2d: iter=     8 ; resid.=  3.71603930851722E-02
(PID.TID 0000.0001)  cg2d: iter=     9 ; resid.=  3.06061118726215E-02
(PID.TID 0000.0001)  cg2d: iter=    10 ; resid.=  2.53206919841843E-02
(PID.TID 0000.0001)  cg2d: iter=    11 ; resid.=  2.09130432164281E-02
(PID.TID 0000.0001)  cg2d: iter=    12 ; resid.=  1.67517495735989E-02
(PID.TID 0000.0001)  cg2d: iter=    13 ; resid.=  1.35912634321982E-02
(PID.TID 0000.0001)  cg2d: iter=    14 ; resid.=  1.10691996242763E-02
(PID.TID 0000.0001)  cg2d: iter=    15 ; resid.=  9.04218675185727E-03
(PID.TID 0000.0001)  cg2d: iter=    16 ; resid.=  7.26918916286995E-03
(PID.TID 0000.0001)  cg2d: iter=    17 ; resid.=  6.43793504728166E-03
(PID.TID 0000.0001)  cg2d: iter=    18 ; resid.=  5.35692917723231E-03
(PID.TID 0000.0001)  cg2d: iter=    19 ; resid.=  4.45619791318447E-03
(PID.TID 0000.0001)  cg2d: iter=    20 ; resid.=  3.81411363953806E-03
(PID.TID 0000.0001)  cg2d: iter=    21 ; resid.=  3.44761408839234E-03
(PID.TID 0000.0001)  cg2d: iter=    22 ; resid.=  3.07432282621205E-03
(PID.TID 0000.0001)  cg2d: iter=    23 ; resid.=  2.46871796351827E-03
(PID.TID 0000.0001)  cg2d: iter=    24 ; resid.=  1.99535127121587E-03
(PID.TID 0000.0001)  cg2d: iter=    25 ; resid.=  1.64945316280395E-03
(PID.TID 0000.0001)  cg2d: iter=    26 ; resid.=  1.30757032207158E-03
(PID.TID 0000.0001)  cg2d: iter=    27 ; resid.=  1.09922862507702E-03
(PID.TID 0000.0001)  cg2d: iter=    28 ; resid.=  9.20487485874667E-04
(PID.TID 0000.0001)  cg2d: iter=    29 ; resid.=  7.65420140739901E-04
(PID.TID 0000.0001)  cg2d: iter=    30 ; resid.=  6.03024019356162E-04
(PID.TID 0000.0001)  cg2d: iter=    31 ; resid.=  5.05718992870193E-04
(PID.TID 0000.0001)  cg2d: iter=    32 ; resid.=  3.75026822234049E-04
(PID.TID 0000.0001)  cg2d: iter=    33 ; resid.=  3.06153454249100E-04
(PID.TID 0000.0001)  cg2d: iter=    34 ; resid.=  2.79311911463910E-04
(PID.TID 0000.0001)  cg2d: iter=    35 ; resid.=  2.38123291685113E-04
(PID.TID 0000.0001)  cg2d: iter=    36 ; resid.=  2.01147530048263E-04
(PID.TID 0000.0001)  cg2d: iter=    37 ; resid.=  1.59536337295131E-04
(PID.TID 0000.0001)  cg2d: iter=    38 ; resid.=  1.34892342219429E-04
(PID.TID 0000.0001)  cg2d: iter=    39 ; resid.=  1.18141644332911E-04
(PID.TID 0000.0001)  cg2d: iter=    40 ; resid.=  1.00931071625714E-04
(PID.TID 0000.0001)  cg2d: iter=    41 ; resid.=  8.67798832578549E-05
(PID.TID 0000.0001)  cg2d: iter=    42 ; resid.=  8.12727726316602E-05
(PID.TID 0000.0001)  cg2d: iter=    43 ; resid.=  7.11039470467131E-05
(PID.TID 0000.0001)  cg2d: iter=    44 ; resid.=  5.71326963852202E-05
(PID.TID 0000.0001)  cg2d: iter=    45 ; resid.=  4.91058358043725E-05
(PID.TID 0000.0001)  cg2d: iter=    46 ; resid.=  4.03099882185877E-05
(PID.TID 0000.0001)  cg2d: iter=    47 ; resid.=  3.19013513816096E-05
(PID.TID 0000.0001)  cg2d: iter=    48 ; resid.=  2.59126117049229E-05
(PID.TID 0000.0001)  cg2d: iter=    49 ; resid.=  2.21972421516885E-05
(PID.TID 0000.0001)  cg2d: iter=    50 ; resid.=  1.89577024995424E-05
(PID.TID 0000.0001)  cg2d: iter=    51 ; resid.=  1.57502494136219E-05
(PID.TID 0000.0001)  cg2d: iter=    52 ; resid.=  1.24660406285199E-05
(PID.TID 0000.0001)  cg2d: iter=    53 ; resid.=  1.08277610019834E-05
(PID.TID 0000.0001)  cg2d: iter=    54 ; resid.=  9.23037600184300E-06
(PID.TID 0000.0001)  cg2d: iter=    55 ; resid.=  8.12754398695657E-06
(PID.TID 0000.0001)  cg2d: iter=    56 ; resid.=  6.41461937041540E-06
(PID.TID 0000.0001)  cg2d: iter=    57 ; resid.=  4.90479192440715E-06
(PID.TID 0000.0001)  cg2d: iter=    58 ; resid.=  3.78070983317675E-06
(PID.TID 0000.0001)  cg2d: iter=    59 ; resid.=  2.76091995424318E-06
(PID.TID 0000.0001)  cg2d: iter=    60 ; resid.=  2.17899469691174E-06
(PID.TID 0000.0001)  cg2d: iter=    61 ; resid.=  1.81838487497662E-06
(PID.TID 0000.0001)  cg2d: iter=    62 ; resid.=  1.44505253635643E-06
(PID.TID 0000.0001)  cg2d: iter=    63 ; resid.=  1.14663749194925E-06
(PID.TID 0000.0001)  cg2d: iter=    64 ; resid.=  9.13262127620504E-07
(PID.TID 0000.0001)  cg2d: iter=    65 ; resid.=  7.45111097291741E-07
(PID.TID 0000.0001)  cg2d: iter=    66 ; resid.=  5.83289174609577E-07
(PID.TID 0000.0001)  cg2d: iter=    67 ; resid.=  4.77633363978647E-07
(PID.TID 0000.0001)  cg2d: iter=    68 ; resid.=  4.20574619111149E-07
(PID.TID 0000.0001)  cg2d: iter=    69 ; resid.=  3.41361158180463E-07
(PID.TID 0000.0001)  cg2d: iter=    70 ; resid.=  2.58071077571815E-07
(PID.TID 0000.0001)  cg2d: iter=    71 ; resid.=  2.10673000779200E-07
(PID.TID 0000.0001)  cg2d: iter=    72 ; resid.=  1.71567699992307E-07
(PID.TID 0000.0001)  cg2d: iter=    73 ; resid.=  1.49352539375281E-07
(PID.TID 0000.0001)  cg2d: iter=    74 ; resid.=  1.27486937725645E-07
(PID.TID 0000.0001)  cg2d: iter=    75 ; resid.=  1.07392903862415E-07
(PID.TID 0000.0001)  cg2d: iter=    76 ; resid.=  9.50929502574935E-08
(PID.TID 0000.0001)  cg2d: iter=    77 ; resid.=  7.90481263024095E-08
(PID.TID 0000.0001)  cg2d: iter=    78 ; resid.=  6.73945349387748E-08
(PID.TID 0000.0001)  cg2d: iter=    79 ; resid.=  5.87145008040654E-08
(PID.TID 0000.0001)  cg2d: iter=    80 ; resid.=  5.00435555795148E-08
(PID.TID 0000.0001)  cg2d: iter=    81 ; resid.=  3.97269818396530E-08
(PID.TID 0000.0001)  cg2d: iter=    82 ; resid.=  3.06794223393382E-08
(PID.TID 0000.0001)  cg2d: iter=    83 ; resid.=  2.34855860846887E-08
(PID.TID 0000.0001)  cg2d: iter=    84 ; resid.=  1.89693542475684E-08
(PID.TID 0000.0001)  cg2d: iter=    85 ; resid.=  1.37403353874870E-08
(PID.TID 0000.0001)  cg2d: iter=    86 ; resid.=  1.07238564227365E-08
(PID.TID 0000.0001)  cg2d: iter=    87 ; resid.=  7.98193680505038E-09
(PID.TID 0000.0001)  cg2d: iter=    88 ; resid.=  5.98580502649513E-09
(PID.TID 0000.0001)  cg2d: iter=    89 ; resid.=  4.98292683496766E-09
(PID.TID 0000.0001)  cg2d: iter=    90 ; resid.=  4.68115914268965E-09
(PID.TID 0000.0001)  cg2d: iter=    91 ; resid.=  3.65627960418380E-09
(PID.TID 0000.0001)  cg2d: iter=    92 ; resid.=  2.60119048798835E-09
(PID.TID 0000.0001)  cg2d: iter=    93 ; resid.=  1.81474237138930E-09
(PID.TID 0000.0001)  cg2d: iter=    94 ; resid.=  1.34459247722069E-09
(PID.TID 0000.0001)  cg2d: iter=    95 ; resid.=  1.08506174922817E-09
(PID.TID 0000.0001)  cg2d: iter=    96 ; resid.=  8.28496785893916E-10
(PID.TID 0000.0001)  cg2d: iter=    97 ; resid.=  5.54809028845227E-10
(PID.TID 0000.0001)  cg2d: iter=    98 ; resid.=  3.94085324399581E-10
(PID.TID 0000.0001)  cg2d: iter=    99 ; resid.=  3.04904101726923E-10
(PID.TID 0000.0001)  cg2d: iter=   100 ; resid.=  2.60582313455922E-10
(PID.TID 0000.0001)  cg2d: iter=   101 ; resid.=  2.12446407121073E-10
(PID.TID 0000.0001)  cg2d: iter=   102 ; resid.=  1.57351737905734E-10
(PID.TID 0000.0001)  cg2d: iter=   103 ; resid.=  1.11119353711258E-10
(PID.TID 0000.0001)  cg2d: iter=   104 ; resid.=  8.67430194154360E-11
(PID.TID 0000.0001)  cg2d: iter=   105 ; resid.=  7.65403029077607E-11
(PID.TID 0000.0001)  cg2d: iter=   106 ; resid.=  6.41483079969196E-11
(PID.TID 0000.0001)  cg2d: iter=   107 ; resid.=  5.25981518087656E-11
(PID.TID 0000.0001)  cg2d: iter=   108 ; resid.=  4.68199023584065E-11
(PID.TID 0000.0001)  cg2d: iter=   109 ; resid.=  3.98243811768852E-11
(PID.TID 0000.0001)  cg2d: iter=   110 ; resid.=  3.40625999398748E-11
(PID.TID 0000.0001)  cg2d: iter=   111 ; resid.=  2.68856034841639E-11
(PID.TID 0000.0001)  cg2d: iter=   112 ; resid.=  2.19774157159098E-11
(PID.TID 0000.0001)  cg2d: iter=   113 ; resid.=  1.74808802702081E-11
(PID.TID 0000.0001)  cg2d: iter=   114 ; resid.=  1.34756653348571E-11
(PID.TID 0000.0001)  cg2d: iter=   115 ; resid.=  9.92469016022269E-12
(PID.TID 0000.0001)  cg2d: iter=   116 ; resid.=  7.50887488743680E-12
(PID.TID 0000.0001)  cg2d: iter=   117 ; resid.=  5.97369231388315E-12
(PID.TID 0000.0001)  cg2d: iter=   118 ; resid.=  4.56553720300979E-12
(PID.TID 0000.0001)  cg2d: iter=   119 ; resid.=  3.50537025000693E-12
(PID.TID 0000.0001)  cg2d: iter=   120 ; resid.=  2.74328266910590E-12
(PID.TID 0000.0001)  cg2d: iter=   121 ; resid.=  2.07981069980046E-12
(PID.TID 0000.0001)  cg2d: iter=   122 ; resid.=  1.64944829788852E-12
(PID.TID 0000.0001)  cg2d: iter=   123 ; resid.=  1.51178492564320E-12
(PID.TID 0000.0001)  cg2d: iter=   124 ; resid.=  1.24641383333697E-12
(PID.TID 0000.0001)  cg2d: iter=   125 ; resid.=  9.43397614074493E-13
(PID.TID 0000.0001)  cg2d: iter=   126 ; resid.=  6.21807176988325E-13
(PID.TID 0000.0001)  cg2d: iter=   127 ; resid.=  4.26035442315535E-13
(PID.TID 0000.0001)  cg2d: iter=   128 ; resid.=  2.85675505848199E-13
(PID.TID 0000.0001)  cg2d: iter=   129 ; resid.=  1.81153968101018E-13
(PID.TID 0000.0001)  cg2d: iter=   130 ; resid.=  1.28596556949726E-13
(PID.TID 0000.0001)  cg2d: iter=   131 ; resid.=  9.31641782851394E-14
DEBUG_STATS_RL:    cg2d_x (SOLVE_FOR_PRESSURE)  min= -1.78667681365067E+01
DEBUG_STATS_RL:    cg2d_x (SOLVE_FOR_PRESSURE)  max=  7.59531400247594E+00
DEBUG_STATS_RL:    cg2d_x (SOLVE_FOR_PRESSURE) mean= -1.77307345333862E+00
DEBUG_STATS_RL:    cg2d_x (SOLVE_FOR_PRESSURE) S.D.=  6.92442218669846E+00
(PID.TID 0000.0001)      cg2d_init_res =   2.59618152068760E-01
(PID.TID 0000.0001)      cg2d_iters(min,last) =      -1     131
(PID.TID 0000.0001)      cg2d_last_res =   9.31641782851394E-14
(PID.TID 0000.0001) // =======================================================
(PID.TID 0000.0001) // Begin MONITOR dynamic field statistics
(PID.TID 0000.0001) // =======================================================
(PID.TID 0000.0001) %MON time_tsnumber                =                    63
(PID.TID 0000.0001) %MON time_secondsf                =   5.4432000000000E+06
(PID.TID 0000.0001) %MON dynstat_eta_max              =   7.7424199821363E-01
(PID.TID 0000.0001) %MON dynstat_eta_min              =  -1.8212811556072E+00
(PID.TID 0000.0001) %MON dynstat_eta_mean             =  -4.6443332358838E-03
(PID.TID 0000.0001) %MON dynstat_eta_sd               =   6.0614691152994E-01
(PID.TID 0000.0001) %MON dynstat_eta_del2             =   2.3840459268955E-03
(PID.TID 0000.0001) %MON dynstat_uvel_max             =   1.2041812928759E-01
(PID.TID 0000.0001) %MON dynstat_uvel_min             =  -1.2709718734365E-01
(PID.TID 0000.0001) %MON dynstat_uvel_mean            =   2.2389608998393E-03
(PID.TID 0000.0001) %MON dynstat_uvel_sd              =   1.3654760356509E-02
(PID.TID 0000.0001) %MON dynstat_uvel_del2            =   8.4645453145686E-05
(PID.TID 0000.0001) %MON dynstat_vvel_max             =   1.4026423210508E-01
(PID.TID 0000.0001) %MON dynstat_vvel_min             =  -9.4466390336083E-02
(PID.TID 0000.0001) %MON dynstat_vvel_mean            =   6.7019360427307E-05
(PID.TID 0000.0001) %MON dynstat_vvel_sd              =   8.6883852229282E-03
(PID.TID 0000.0001) %MON dynstat_vvel_del2            =   7.3243104207865E-05
(PID.TID 0000.0001) %MON dynstat_wvel_max             =   9.6286263960659E-05
(PID.TID 0000.0001) %MON dynstat_wvel_min             =  -7.2036279592540E-05
(PID.TID 0000.0001) %MON dynstat_wvel_mean            =  -2.8411966375512E-22
(PID.TID 0000.0001) %MON dynstat_wvel_sd              =   1.1345537721481E-05
(PID.TID 0000.0001) %MON dynstat_wvel_del2            =   1.1612536305759E-07
(PID.TID 0000.0001) %MON dynstat_theta_max            =   3.0621775840847E+01
(PID.TID 0000.0001) %MON dynstat_theta_min            =  -1.9627732878758E+00
(PID.TID 0000.0001) %MON dynstat_theta_mean           =   3.6334094614832E+00
(PID.TID 0000.0001) %MON dynstat_theta_sd             =   4.4243179595799E+00
(PID.TID 0000.0001) %MON dynstat_theta_del2           =   4.8975477712394E-03
(PID.TID 0000.0001) %MON dynstat_salt_max             =   3.7477334673946E+01
(PID.TID 0000.0001) %MON dynstat_salt_min             =   2.9889018905542E+01
(PID.TID 0000.0001) %MON dynstat_salt_mean            =   3.4727985751888E+01
(PID.TID 0000.0001) %MON dynstat_salt_sd              =   2.9644880666319E-01
(PID.TID 0000.0001) %MON dynstat_salt_del2            =   9.9013951464798E-04
(PID.TID 0000.0001) %MON dynstat_sst_max              =   3.0621775840847E+01
(PID.TID 0000.0001) %MON dynstat_sst_min              =  -1.9627732878758E+00
(PID.TID 0000.0001) %MON dynstat_sst_mean             =   1.9013304783985E+01
(PID.TID 0000.0001) %MON dynstat_sst_sd               =   9.0769835259423E+00
(PID.TID 0000.0001) %MON dynstat_sst_del2             =   2.8107970337204E-02
(PID.TID 0000.0001) %MON dynstat_sss_max              =   3.7458382641827E+01
(PID.TID 0000.0001) %MON dynstat_sss_min              =   2.9889018905542E+01
(PID.TID 0000.0001) %MON dynstat_sss_mean             =   3.4849384681157E+01
(PID.TID 0000.0001) %MON dynstat_sss_sd               =   9.8159269537038E-01
(PID.TID 0000.0001) %MON dynstat_sss_del2             =   8.0300552991832E-03
(PID.TID 0000.0001) %MON forcing_qnet_max             =   3.1088366190592E+02
(PID.TID 0000.0001) %MON forcing_qnet_min             =  -1.6774622141520E+02
(PID.TID 0000.0001) %MON forcing_qnet_mean            =  -1.0168479485291E+01
(PID.TID 0000.0001) %MON forcing_qnet_sd              =   5.7577799379717E+01
(PID.TID 0000.0001) %MON forcing_qnet_del2            =   8.7481271655306E-01
(PID.TID 0000.0001) %MON forcing_qsw_max              =   0.0000000000000E+00
(PID.TID 0000.0001) %MON forcing_qsw_min              =   0.0000000000000E+00
(PID.TID 0000.0001) %MON forcing_qsw_mean             =   0.0000000000000E+00
(PID.TID 0000.0001) %MON forcing_qsw_sd               =   0.0000000000000E+00
(PID.TID 0000.0001) %MON forcing_qsw_del2             =   0.0000000000000E+00
(PID.TID 0000.0001) %MON forcing_empmr_max            =   6.9183654242503E-05
(PID.TID 0000.0001) %MON forcing_empmr_min            =  -7.8075082872905E-05
(PID.TID 0000.0001) %MON forcing_empmr_mean           =   7.2088015504532E-07
(PID.TID 0000.0001) %MON forcing_empmr_sd             =   2.6762189976849E-05
(PID.TID 0000.0001) %MON forcing_empmr_del2           =   3.5501110525875E-07
(PID.TID 0000.0001) %MON forcing_fu_max               =   3.3231299221516E-01
(PID.TID 0000.0001) %MON forcing_fu_min               =  -3.0727105190357E-01
(PID.TID 0000.0001) %MON forcing_fu_mean              =   1.9232134637429E-02
(PID.TID 0000.0001) %MON forcing_fu_sd                =   9.5991792760700E-02
(PID.TID 0000.0001) %MON forcing_fu_del2              =   7.2366523657091E-04
(PID.TID 0000.0001) %MON forcing_fv_max               =   1.5079911947250E-01
(PID.TID 0000.0001) %MON forcing_fv_min               =  -1.7441664040089E-01
(PID.TID 0000.0001) %MON forcing_fv_mean              =  -7.3940068904414E-03
(PID.TID 0000.0001) %MON forcing_fv_sd                =   4.1773346779471E-02
(PID.TID 0000.0001) %MON forcing_fv_del2              =   4.6691190936856E-04
(PID.TID 0000.0001) %MON trAdv_CFL_u_max              =   3.9933171990263E-02
(PID.TID 0000.0001) %MON trAdv_CFL_v_max              =   2.6579787598891E-02
(PID.TID 0000.0001) %MON trAdv_CFL_w_max              =   2.5336628186424E-02
(PID.TID 0000.0001) %MON advcfl_uvel_max              =   4.1401206674234E-02
(PID.TID 0000.0001) %MON advcfl_vvel_max              =   2.7251090730190E-02
(PID.TID 0000.0001) %MON advcfl_wvel_max              =   2.6809911396173E-02
(PID.TID 0000.0001) %MON advcfl_W_hf_max              =   3.2171893675407E-02
(PID.TID 0000.0001) %MON pe_b_mean                    =   4.7017819991599E-04
(PID.TID 0000.0001) %MON ke_max                       =   1.3378579431800E-02
(PID.TID 0000.0001) %MON ke_mean                      =   1.2087754646150E-04
(PID.TID 0000.0001) %MON ke_vol                       =   1.3226782436723E+18
(PID.TID 0000.0001) %MON vort_r_min                   =  -3.5342149005096E-07
(PID.TID 0000.0001) %MON vort_r_max                   =   4.0246008065408E-07
(PID.TID 0000.0001) %MON vort_a_mean                  =  -2.5274807266988E-05
(PID.TID 0000.0001) %MON vort_a_sd                    =   7.3604625388000E-05
(PID.TID 0000.0001) %MON vort_p_mean                  =  -3.1845655635092E-05
(PID.TID 0000.0001) %MON vort_p_sd                    =   1.3162462110384E-04
(PID.TID 0000.0001) %MON surfExpan_theta_mean         =   2.3968766642687E-07
(PID.TID 0000.0001) %MON surfExpan_salt_mean          =  -4.1120873531533E-08
(PID.TID 0000.0001) // =======================================================
(PID.TID 0000.0001) // End MONITOR dynamic field statistics
(PID.TID 0000.0001) // =======================================================
 EXTERNAL_FIELDS_LOAD,        63 : iP,iLd,i0,i1=    2    3    2    3 ; Wght=  0.4000000000  0.6000000000
 EXTERNAL_FIELDS_LOAD: (fu0,1),fu,fv= -1.4435E-02 -2.7199E-02 -2.2093E-02 -7.4011E-03
 EXTERNAL_FIELDS_LOAD: SST,SSS,Q,E-P= -3.2309E-01  3.4516E+01  2.2543E+02  8.7993E-06
DEBUG_STATS_RL:          Uvel (THERMODYNAMICS)  min= -1.27097187343652E-01
DEBUG_STATS_RL:          Uvel (THERMODYNAMICS)  max=  1.20418129287586E-01
DEBUG_STATS_RL:          Uvel (THERMODYNAMICS) mean=  5.63583687180735E-03
DEBUG_STATS_RL:          Uvel (THERMODYNAMICS) S.D.=  2.10795185085215E-02
DEBUG_STATS_RL:          Vvel (THERMODYNAMICS)  min= -9.44663903360827E-02
DEBUG_STATS_RL:          Vvel (THERMODYNAMICS)  max=  1.40264232105078E-01
DEBUG_STATS_RL:          Vvel (THERMODYNAMICS) mean=  6.17908420980774E-04
DEBUG_STATS_RL:          Vvel (THERMODYNAMICS) S.D.=  1.38753631265872E-02
DEBUG_STATS_RL:          Wvel (THERMODYNAMICS)  min= -7.20362795925400E-05
DEBUG_STATS_RL:          Wvel (THERMODYNAMICS)  max=  9.62862639606594E-05
DEBUG_STATS_RL:          Wvel (THERMODYNAMICS) mean= -1.32557894552383E-07
DEBUG_STATS_RL:          Wvel (THERMODYNAMICS) S.D.=  1.00023397404544E-05
DEBUG_STATS_RL:         Theta (THERMODYNAMICS)  min= -1.96124395883065E+00
DEBUG_STATS_RL:         Theta (THERMODYNAMICS)  max=  3.06451593048006E+01
DEBUG_STATS_RL:         Theta (THERMODYNAMICS) mean=  3.22993322237937E+00
DEBUG_STATS_RL:         Theta (THERMODYNAMICS) S.D.=  5.87906779851373E+00
DEBUG_STATS_RL:          Salt (THERMODYNAMICS)  min=  9.99999999999997E-03
DEBUG_STATS_RL:          Salt (THERMODYNAMICS)  max=  3.74774330909034E+01
DEBUG_STATS_RL:          Salt (THERMODYNAMICS) mean=  1.88547735992829E+01
DEBUG_STATS_RL:          Salt (THERMODYNAMICS) S.D.=  1.73003101609217E+01
DEBUG_STATS_RL:         GtNm1 (THERMODYNAMICS)  min= -5.25953948177654E-06
DEBUG_STATS_RL:         GtNm1 (THERMODYNAMICS)  max=  2.77122811374655E-06
DEBUG_STATS_RL:         GtNm1 (THERMODYNAMICS) mean=  3.25763046380958E-09
DEBUG_STATS_RL:         GtNm1 (THERMODYNAMICS) S.D.=  1.68552376159813E-07
DEBUG_STATS_RL:         GsNm1 (THERMODYNAMICS)  min= -5.69694429960182E-07
DEBUG_STATS_RL:         GsNm1 (THERMODYNAMICS)  max=  4.00752632626828E-07
DEBUG_STATS_RL:         GsNm1 (THERMODYNAMICS) mean= -4.17023467989360E-10
DEBUG_STATS_RL:         GsNm1 (THERMODYNAMICS) S.D.=  1.66458996234200E-08
DEBUG_STATS_RL:                EtaN (DYNAMICS)  min= -1.82128115560724E+00
DEBUG_STATS_RL:                EtaN (DYNAMICS)  max=  7.74241998213632E-01
DEBUG_STATS_RL:                EtaN (DYNAMICS) mean= -1.80741432552358E-01
DEBUG_STATS_RL:                EtaN (DYNAMICS) S.D.=  7.05853433914214E-01
DEBUG_STATS_RL:                Uvel (DYNAMICS)  min= -1.27097187343652E-01
DEBUG_STATS_RL:                Uvel (DYNAMICS)  max=  1.20418129287586E-01
DEBUG_STATS_RL:                Uvel (DYNAMICS) mean=  5.63583687180735E-03
DEBUG_STATS_RL:                Uvel (DYNAMICS) S.D.=  2.10795185085215E-02
DEBUG_STATS_RL:                Vvel (DYNAMICS)  min= -9.44663903360827E-02
DEBUG_STATS_RL:                Vvel (DYNAMICS)  max=  1.40264232105078E-01
DEBUG_STATS_RL:                Vvel (DYNAMICS) mean=  6.17908420980774E-04
DEBUG_STATS_RL:                Vvel (DYNAMICS) S.D.=  1.38753631265872E-02
DEBUG_STATS_RL:                Wvel (DYNAMICS)  min= -7.20362795925400E-05
DEBUG_STATS_RL:                Wvel (DYNAMICS)  max=  9.62862639606594E-05
DEBUG_STATS_RL:                Wvel (DYNAMICS) mean= -1.32557894552383E-07
DEBUG_STATS_RL:                Wvel (DYNAMICS) S.D.=  1.00023397404544E-05
DEBUG_STATS_RL:               Theta (DYNAMICS)  min= -1.96124395883065E+00
DEBUG_STATS_RL:               Theta (DYNAMICS)  max=  3.06451593048006E+01
DEBUG_STATS_RL:               Theta (DYNAMICS) mean=  3.22993322237937E+00
DEBUG_STATS_RL:               Theta (DYNAMICS) S.D.=  5.87906779851373E+00
DEBUG_STATS_RL:                Salt (DYNAMICS)  min=  9.99999999999997E-03
DEBUG_STATS_RL:                Salt (DYNAMICS)  max=  3.74774330909034E+01
DEBUG_STATS_RL:                Salt (DYNAMICS) mean=  1.88547735992829E+01
DEBUG_STATS_RL:                Salt (DYNAMICS) S.D.=  1.73003101609217E+01
DEBUG_STATS_RL:                  Gu (DYNAMICS)  min= -1.26196130575608E-01
DEBUG_STATS_RL:                  Gu (DYNAMICS)  max=  1.24568882636124E-01
DEBUG_STATS_RL:                  Gu (DYNAMICS) mean=  5.61871571709068E-03
DEBUG_STATS_RL:                  Gu (DYNAMICS) S.D.=  2.15672974694842E-02
DEBUG_STATS_RL:                  Gv (DYNAMICS)  min= -1.06733547136766E-01
DEBUG_STATS_RL:                  Gv (DYNAMICS)  max=  1.41282540938510E-01
DEBUG_STATS_RL:                  Gv (DYNAMICS) mean=  3.18906494176407E-03
DEBUG_STATS_RL:                  Gv (DYNAMICS) S.D.=  1.50469346298526E-02
DEBUG_STATS_RL:               GuNm1 (DYNAMICS)  min= -9.90414285837243E-06
DEBUG_STATS_RL:               GuNm1 (DYNAMICS)  max=  9.34760313108107E-06
DEBUG_STATS_RL:               GuNm1 (DYNAMICS) mean=  5.38439146728775E-09
DEBUG_STATS_RL:               GuNm1 (DYNAMICS) S.D.=  1.19795334401649E-06
DEBUG_STATS_RL:               GvNm1 (DYNAMICS)  min= -1.00768421796181E-05
DEBUG_STATS_RL:               GvNm1 (DYNAMICS)  max=  1.57710974191661E-05
DEBUG_STATS_RL:               GvNm1 (DYNAMICS) mean=  7.39968778400794E-07
DEBUG_STATS_RL:               GvNm1 (DYNAMICS) S.D.=  2.64517258336032E-06
DEBUG_STATS_RL:               GtNm1 (DYNAMICS)  min= -5.25953948177654E-06
DEBUG_STATS_RL:               GtNm1 (DYNAMICS)  max=  2.77122811374655E-06
DEBUG_STATS_RL:               GtNm1 (DYNAMICS) mean=  3.25763046380958E-09
DEBUG_STATS_RL:               GtNm1 (DYNAMICS) S.D.=  1.68552376159813E-07
DEBUG_STATS_RL:               GsNm1 (DYNAMICS)  min= -5.69694429960182E-07
DEBUG_STATS_RL:               GsNm1 (DYNAMICS)  max=  4.00752632626828E-07
DEBUG_STATS_RL:               GsNm1 (DYNAMICS) mean= -4.17023467989360E-10
DEBUG_STATS_RL:               GsNm1 (DYNAMICS) S.D.=  1.66458996234200E-08
DEBUG_STATS_RL:    cg2d_b (SOLVE_FOR_PRESSURE)  min= -1.96278920268417E+04
DEBUG_STATS_RL:    cg2d_b (SOLVE_FOR_PRESSURE)  max=  2.52263055038495E+04
DEBUG_STATS_RL:    cg2d_b (SOLVE_FOR_PRESSURE) mean=  4.50788432396824E+00
DEBUG_STATS_RL:    cg2d_b (SOLVE_FOR_PRESSURE) S.D.=  3.91594991472209E+03
 cg2d: Sum(rhs),rhsMax =   4.13685317827989E-01  1.65693128705181E+00
(PID.TID 0000.0001)  cg2d: iter=     1 ; resid.=  9.22225367802979E-02
(PID.TID 0000.0001)  cg2d: iter=     2 ; resid.=  8.17944760506649E-02
(PID.TID 0000.0001)  cg2d: iter=     3 ; resid.=  7.82558695376539E-02
(PID.TID 0000.0001)  cg2d: iter=     4 ; resid.=  7.21674674615660E-02
(PID.TID 0000.0001)  cg2d: iter=     5 ; resid.=  6.34579378404455E-02
(PID.TID 0000.0001)  cg2d: iter=     6 ; resid.=  5.22638921609669E-02
(PID.TID 0000.0001)  cg2d: iter=     7 ; resid.=  4.58677473016980E-02
(PID.TID 0000.0001)  cg2d: iter=     8 ; resid.=  4.04360905884664E-02
(PID.TID 0000.0001)  cg2d: iter=     9 ; resid.=  3.23899759177263E-02
(PID.TID 0000.0001)  cg2d: iter=    10 ; resid.=  2.59661889712462E-02
(PID.TID 0000.0001)  cg2d: iter=    11 ; resid.=  2.15876002815441E-02
(PID.TID 0000.0001)  cg2d: iter=    12 ; resid.=  1.75671085626626E-02
(PID.TID 0000.0001)  cg2d: iter=    13 ; resid.=  1.43392500917571E-02
(PID.TID 0000.0001)  cg2d: iter=    14 ; resid.=  1.17075568877195E-02
(PID.TID 0000.0001)  cg2d: iter=    15 ; resid.=  9.54474062160184E-03
(PID.TID 0000.0001)  cg2d: iter=    16 ; resid.=  7.73092360114647E-03
(PID.TID 0000.0001)  cg2d: iter=    17 ; resid.=  7.05183490157735E-03
(PID.TID 0000.0001)  cg2d: iter=    18 ; resid.=  5.84708021333859E-03
(PID.TID 0000.0001)  cg2d: iter=    19 ; resid.=  4.80049515495025E-03
(PID.TID 0000.0001)  cg2d: iter=    20 ; resid.=  4.05711113766415E-03
(PID.TID 0000.0001)  cg2d: iter=    21 ; resid.=  3.66135138738045E-03
(PID.TID 0000.0001)  cg2d: iter=    22 ; resid.=  3.25485078502900E-03
(PID.TID 0000.0001)  cg2d: iter=    23 ; resid.=  2.61341486914211E-03
(PID.TID 0000.0001)  cg2d: iter=    24 ; resid.=  2.07923037856877E-03
(PID.TID 0000.0001)  cg2d: iter=    25 ; resid.=  1.69861784474018E-03
(PID.TID 0000.0001)  cg2d: iter=    26 ; resid.=  1.33893347290656E-03
(PID.TID 0000.0001)  cg2d: iter=    27 ; resid.=  1.13149658178461E-03
(PID.TID 0000.0001)  cg2d: iter=    28 ; resid.=  9.49811768193381E-04
(PID.TID 0000.0001)  cg2d: iter=    29 ; resid.=  7.90388777147523E-04
(PID.TID 0000.0001)  cg2d: iter=    30 ; resid.=  6.16008689715249E-04
(PID.TID 0000.0001)  cg2d: iter=    31 ; resid.=  5.14036376901300E-04
(PID.TID 0000.0001)  cg2d: iter=    32 ; resid.=  3.77804037941966E-04
(PID.TID 0000.0001)  cg2d: iter=    33 ; resid.=  3.01398661117511E-04
(PID.TID 0000.0001)  cg2d: iter=    34 ; resid.=  2.74445186850584E-04
(PID.TID 0000.0001)  cg2d: iter=    35 ; resid.=  2.38790700815432E-04
(PID.TID 0000.0001)  cg2d: iter=    36 ; resid.=  2.03148486376021E-04
(PID.TID 0000.0001)  cg2d: iter=    37 ; resid.=  1.61545511196662E-04
(PID.TID 0000.0001)  cg2d: iter=    38 ; resid.=  1.38180939401044E-04
(PID.TID 0000.0001)  cg2d: iter=    39 ; resid.=  1.20766922396295E-04
(PID.TID 0000.0001)  cg2d: iter=    40 ; resid.=  1.01602943289167E-04
(PID.TID 0000.0001)  cg2d: iter=    41 ; resid.=  8.52847240550939E-05
(PID.TID 0000.0001)  cg2d: iter=    42 ; resid.=  7.86162583351961E-05
(PID.TID 0000.0001)  cg2d: iter=    43 ; resid.=  6.84162218372183E-05
(PID.TID 0000.0001)  cg2d: iter=    44 ; resid.=  5.56270567988666E-05
(PID.TID 0000.0001)  cg2d: iter=    45 ; resid.=  4.87111759196493E-05
(PID.TID 0000.0001)  cg2d: iter=    46 ; resid.=  3.96723386254285E-05
(PID.TID 0000.0001)  cg2d: iter=    47 ; resid.=  3.10479027907665E-05
(PID.TID 0000.0001)  cg2d: iter=    48 ; resid.=  2.54746768880137E-05
(PID.TID 0000.0001)  cg2d: iter=    49 ; resid.=  2.24211828915118E-05
(PID.TID 0000.0001)  cg2d: iter=    50 ; resid.=  1.98021894678247E-05
(PID.TID 0000.0001)  cg2d: iter=    51 ; resid.=  1.67519146233068E-05
(PID.TID 0000.0001)  cg2d: iter=    52 ; resid.=  1.35401140818352E-05
(PID.TID 0000.0001)  cg2d: iter=    53 ; resid.=  1.18164773082956E-05
(PID.TID 0000.0001)  cg2d: iter=    54 ; resid.=  1.00610594741357E-05
(PID.TID 0000.0001)  cg2d: iter=    55 ; resid.=  8.78025278313010E-06
(PID.TID 0000.0001)  cg2d: iter=    56 ; resid.=  6.88389241331150E-06
(PID.TID 0000.0001)  cg2d: iter=    57 ; resid.=  5.22778931356651E-06
(PID.TID 0000.0001)  cg2d: iter=    58 ; resid.=  4.03433311737876E-06
(PID.TID 0000.0001)  cg2d: iter=    59 ; resid.=  2.94824160119441E-06
(PID.TID 0000.0001)  cg2d: iter=    60 ; resid.=  2.37571350101538E-06
(PID.TID 0000.0001)  cg2d: iter=    61 ; resid.=  2.02783497306794E-06
(PID.TID 0000.0001)  cg2d: iter=    62 ; resid.=  1.63241843874400E-06
(PID.TID 0000.0001)  cg2d: iter=    63 ; resid.=  1.31464369193317E-06
(PID.TID 0000.0001)  cg2d: iter=    64 ; resid.=  1.04950414117001E-06
(PID.TID 0000.0001)  cg2d: iter=    65 ; resid.=  8.57965512946576E-07
(PID.TID 0000.0001)  cg2d: iter=    66 ; resid.=  6.69559082382150E-07
(PID.TID 0000.0001)  cg2d: iter=    67 ; resid.=  5.50172543459364E-07
(PID.TID 0000.0001)  cg2d: iter=    68 ; resid.=  5.05695107776535E-07
(PID.TID 0000.0001)  cg2d: iter=    69 ; resid.=  4.14421407905744E-07
(PID.TID 0000.0001)  cg2d: iter=    70 ; resid.=  3.20363250496853E-07
(PID.TID 0000.0001)  cg2d: iter=    71 ; resid.=  2.64995452853116E-07
(PID.TID 0000.0001)  cg2d: iter=    72 ; resid.=  2.21745481843426E-07
(PID.TID 0000.0001)  cg2d: iter=    73 ; resid.=  1.99347684159840E-07
(PID.TID 0000.0001)  cg2d: iter=    74 ; resid.=  1.75044947884555E-07
(PID.TID 0000.0001)  cg2d: iter=    75 ; resid.=  1.48345803139461E-07
(PID.TID 0000.0001)  cg2d: iter=    76 ; resid.=  1.27690008087499E-07
(PID.TID 0000.0001)  cg2d: iter=    77 ; resid.=  1.03335500092469E-07
(PID.TID 0000.0001)  cg2d: iter=    78 ; resid.=  8.54007815053658E-08
(PID.TID 0000.0001)  cg2d: iter=    79 ; resid.=  7.09073251893687E-08
(PID.TID 0000.0001)  cg2d: iter=    80 ; resid.=  5.63022002763951E-08
(PID.TID 0000.0001)  cg2d: iter=    81 ; resid.=  4.25518083783842E-08
(PID.TID 0000.0001)  cg2d: iter=    82 ; resid.=  3.21941082590633E-08
(PID.TID 0000.0001)  cg2d: iter=    83 ; resid.=  2.44120106361324E-08
(PID.TID 0000.0001)  cg2d: iter=    84 ; resid.=  1.97316196434988E-08
(PID.TID 0000.0001)  cg2d: iter=    85 ; resid.=  1.41739271110036E-08
(PID.TID 0000.0001)  cg2d: iter=    86 ; resid.=  1.08840454668883E-08
(PID.TID 0000.0001)  cg2d: iter=    87 ; resid.=  7.99449197430132E-09
(PID.TID 0000.0001)  cg2d: iter=    88 ; resid.=  5.87761248949896E-09
(PID.TID 0000.0001)  cg2d: iter=    89 ; resid.=  4.89935155922434E-09
(PID.TID 0000.0001)  cg2d: iter=    90 ; resid.=  4.49029851718805E-09
(PID.TID 0000.0001)  cg2d: iter=    91 ; resid.=  3.50929456670274E-09
(PID.TID 0000.0001)  cg2d: iter=    92 ; resid.=  2.56192659814168E-09
(PID.TID 0000.0001)  cg2d: iter=    93 ; resid.=  1.84771858694461E-09
(PID.TID 0000.0001)  cg2d: iter=    94 ; resid.=  1.38637360772039E-09
(PID.TID 0000.0001)  cg2d: iter=    95 ; resid.=  1.09668962306499E-09
(PID.TID 0000.0001)  cg2d: iter=    96 ; resid.=  8.27801805146506E-10
(PID.TID 0000.0001)  cg2d: iter=    97 ; resid.=  5.63373630491877E-10
(PID.TID 0000.0001)  cg2d: iter=    98 ; resid.=  4.03069691311602E-10
(PID.TID 0000.0001)  cg2d: iter=    99 ; resid.=  3.12859498274261E-10
(PID.TID 0000.0001)  cg2d: iter=   100 ; resid.=  2.58458223617675E-10
(PID.TID 0000.0001)  cg2d: iter=   101 ; resid.=  2.02225216367641E-10
(PID.TID 0000.0001)  cg2d: iter=   102 ; resid.=  1.43506740836868E-10
(PID.TID 0000.0001)  cg2d: iter=   103 ; resid.=  9.64669576525593E-11
(PID.TID 0000.0001)  cg2d: iter=   104 ; resid.=  7.03814864997079E-11
(PID.TID 0000.0001)  cg2d: iter=   105 ; resid.=  5.57522934173937E-11
(PID.TID 0000.0001)  cg2d: iter=   106 ; resid.=  4.14874142948233E-11
(PID.TID 0000.0001)  cg2d: iter=   107 ; resid.=  3.01257388748692E-11
(PID.TID 0000.0001)  cg2d: iter=   108 ; resid.=  2.39053516879908E-11
(PID.TID 0000.0001)  cg2d: iter=   109 ; resid.=  1.87208128822835E-11
(PID.TID 0000.0001)  cg2d: iter=   110 ; resid.=  1.50066371277188E-11
(PID.TID 0000.0001)  cg2d: iter=   111 ; resid.=  1.16931895963872E-11
(PID.TID 0000.0001)  cg2d: iter=   112 ; resid.=  9.67509399334624E-12
(PID.TID 0000.0001)  cg2d: iter=   113 ; resid.=  7.78808383531624E-12
(PID.TID 0000.0001)  cg2d: iter=   114 ; resid.=  6.17832869139471E-12
(PID.TID 0000.0001)  cg2d: iter=   115 ; resid.=  4.63334195524692E-12
(PID.TID 0000.0001)  cg2d: iter=   116 ; resid.=  3.52882999855688E-12
(PID.TID 0000.0001)  cg2d: iter=   117 ; resid.=  2.86477086019939E-12
(PID.TID 0000.0001)  cg2d: iter=   118 ; resid.=  2.19616543268959E-12
(PID.TID 0000.0001)  cg2d: iter=   119 ; resid.=  1.73297702234512E-12
(PID.TID 0000.0001)  cg2d: iter=   120 ; resid.=  1.41328462956539E-12
(PID.TID 0000.0001)  cg2d: iter=   121 ; resid.=  1.10480958493407E-12
(PID.TID 0000.0001)  cg2d: iter=   122 ; resid.=  8.86320232653625E-13
(PID.TID 0000.0001)  cg2d: iter=   123 ; resid.=  8.66561273177942E-13
(PID.TID 0000.0001)  cg2d: iter=   124 ; resid.=  8.31947991376606E-13
(PID.TID 0000.0001)  cg2d: iter=   125 ; resid.=  7.35257299326544E-13
(PID.TID 0000.0001)  cg2d: iter=   126 ; resid.=  5.64227525666096E-13
(PID.TID 0000.0001)  cg2d: iter=   127 ; resid.=  4.14220581082872E-13
(PID.TID 0000.0001)  cg2d: iter=   128 ; resid.=  2.81955260666352E-13
(PID.TID 0000.0001)  cg2d: iter=   129 ; resid.=  1.76084263349806E-13
(PID.TID 0000.0001)  cg2d: iter=   130 ; resid.=  1.17604652702230E-13
(PID.TID 0000.0001)  cg2d: iter=   131 ; resid.=  8.11198940936261E-14
DEBUG_STATS_RL:    cg2d_x (SOLVE_FOR_PRESSURE)  min= -1.78196274880630E+01
DEBUG_STATS_RL:    cg2d_x (SOLVE_FOR_PRESSURE)  max=  7.83061391827727E+00
DEBUG_STATS_RL:    cg2d_x (SOLVE_FOR_PRESSURE) mean= -1.78369788465424E+00
DEBUG_STATS_RL:    cg2d_x (SOLVE_FOR_PRESSURE) S.D.=  6.98960073329810E+00
(PID.TID 0000.0001)      cg2d_init_res =   2.59544969463236E-01
(PID.TID 0000.0001)      cg2d_iters(min,last) =      -1     131
(PID.TID 0000.0001)      cg2d_last_res =   8.11198940936261E-14
(PID.TID 0000.0001) // =======================================================
(PID.TID 0000.0001) // Begin MONITOR dynamic field statistics
(PID.TID 0000.0001) // =======================================================
(PID.TID 0000.0001) %MON time_tsnumber                =                    64
(PID.TID 0000.0001) %MON time_secondsf                =   5.5296000000000E+06
(PID.TID 0000.0001) %MON dynstat_eta_max              =   7.9822771847890E-01
(PID.TID 0000.0001) %MON dynstat_eta_min              =  -1.8164757887933E+00
(PID.TID 0000.0001) %MON dynstat_eta_mean             =  -4.7034183328578E-03
(PID.TID 0000.0001) %MON dynstat_eta_sd               =   6.1296632001993E-01
(PID.TID 0000.0001) %MON dynstat_eta_del2             =   2.3877216589338E-03
(PID.TID 0000.0001) %MON dynstat_uvel_max             =   1.2515346709499E-01
(PID.TID 0000.0001) %MON dynstat_uvel_min             =  -1.2658997754182E-01
(PID.TID 0000.0001) %MON dynstat_uvel_mean            =   2.2674558095833E-03
(PID.TID 0000.0001) %MON dynstat_uvel_sd              =   1.3724146772211E-02
(PID.TID 0000.0001) %MON dynstat_uvel_del2            =   8.5133555801559E-05
(PID.TID 0000.0001) %MON dynstat_vvel_max             =   1.4284498011348E-01
(PID.TID 0000.0001) %MON dynstat_vvel_min             =  -9.6112972359456E-02
(PID.TID 0000.0001) %MON dynstat_vvel_mean            =   5.4327453121781E-05
(PID.TID 0000.0001) %MON dynstat_vvel_sd              =   8.6554993614932E-03
(PID.TID 0000.0001) %MON dynstat_vvel_del2            =   7.3385623000551E-05
(PID.TID 0000.0001) %MON dynstat_wvel_max             =   9.5149192241724E-05
(PID.TID 0000.0001) %MON dynstat_wvel_min             =  -7.4787399102198E-05
(PID.TID 0000.0001) %MON dynstat_wvel_mean            =   7.8547492413773E-23
(PID.TID 0000.0001) %MON dynstat_wvel_sd              =   1.1222670900429E-05
(PID.TID 0000.0001) %MON dynstat_wvel_del2            =   1.1457700092212E-07
(PID.TID 0000.0001) %MON dynstat_theta_max            =   3.0645159304801E+01
(PID.TID 0000.0001) %MON dynstat_theta_min            =  -1.9612439588307E+00
(PID.TID 0000.0001) %MON dynstat_theta_mean           =   3.6334592076658E+00
(PID.TID 0000.0001) %MON dynstat_theta_sd             =   4.4245170671361E+00
(PID.TID 0000.0001) %MON dynstat_theta_del2           =   4.8965338443811E-03
(PID.TID 0000.0001) %MON dynstat_salt_max             =   3.7477433090903E+01
(PID.TID 0000.0001) %MON dynstat_salt_min             =   2.9891246738092E+01
(PID.TID 0000.0001) %MON dynstat_salt_mean            =   3.4727987686070E+01
(PID.TID 0000.0001) %MON dynstat_salt_sd              =   2.9645722195033E-01
(PID.TID 0000.0001) %MON dynstat_salt_del2            =   9.8991436864303E-04
(PID.TID 0000.0001) %MON dynstat_sst_max              =   3.0645159304801E+01
(PID.TID 0000.0001) %MON dynstat_sst_min              =  -1.9612439588307E+00
(PID.TID 0000.0001) %MON dynstat_sst_mean             =   1.9018350947560E+01
(PID.TID 0000.0001) %MON dynstat_sst_sd               =   9.0812698088647E+00
(PID.TID 0000.0001) %MON dynstat_sst_del2             =   2.8126517410506E-02
(PID.TID 0000.0001) %MON dynstat_sss_max              =   3.7459146573620E+01
(PID.TID 0000.0001) %MON dynstat_sss_min              =   2.9891246738092E+01
(PID.TID 0000.0001) %MON dynstat_sss_mean             =   3.4849101957386E+01
(PID.TID 0000.0001) %MON dynstat_sss_sd               =   9.8188946285148E-01
(PID.TID 0000.0001) %MON dynstat_sss_del2             =   8.0368069206500E-03
(PID.TID 0000.0001) %MON forcing_qnet_max             =   3.0808551025391E+02
(PID.TID 0000.0001) %MON forcing_qnet_min             =  -1.6744694213867E+02
(PID.TID 0000.0001) %MON forcing_qnet_mean            =  -9.9451399856641E+00
(PID.TID 0000.0001) %MON forcing_qnet_sd              =   5.6487700992384E+01
(PID.TID 0000.0001) %MON forcing_qnet_del2            =   8.7196058081462E-01
(PID.TID 0000.0001) %MON forcing_qsw_max              =   0.0000000000000E+00
(PID.TID 0000.0001) %MON forcing_qsw_min              =   0.0000000000000E+00
(PID.TID 0000.0001) %MON forcing_qsw_mean             =   0.0000000000000E+00
(PID.TID 0000.0001) %MON forcing_qsw_sd               =   0.0000000000000E+00
(PID.TID 0000.0001) %MON forcing_qsw_del2             =   0.0000000000000E+00
(PID.TID 0000.0001) %MON forcing_empmr_max            =   6.9177897898953E-05
(PID.TID 0000.0001) %MON forcing_empmr_min            =  -7.8474262465988E-05
(PID.TID 0000.0001) %MON forcing_empmr_mean           =   7.0779022417096E-07
(PID.TID 0000.0001) %MON forcing_empmr_sd             =   2.6711132545716E-05
(PID.TID 0000.0001) %MON forcing_empmr_del2           =   3.5552428900822E-07
(PID.TID 0000.0001) %MON forcing_fu_max               =   3.3425440788269E-01
(PID.TID 0000.0001) %MON forcing_fu_min               =  -3.1265568137169E-01
(PID.TID 0000.0001) %MON forcing_fu_mean              =   1.9326334226887E-02
(PID.TID 0000.0001) %MON forcing_fu_sd                =   9.6352675211700E-02
(PID.TID 0000.0001) %MON forcing_fu_del2              =   7.2933779422692E-04
(PID.TID 0000.0001) %MON forcing_fv_max               =   1.4972177743912E-01
(PID.TID 0000.0001) %MON forcing_fv_min               =  -1.7535814046860E-01
(PID.TID 0000.0001) %MON forcing_fv_mean              =  -7.4044352404109E-03
(PID.TID 0000.0001) %MON forcing_fv_sd                =   4.1735684182933E-02
(PID.TID 0000.0001) %MON forcing_fv_del2              =   4.6697714482083E-04
(PID.TID 0000.0001) %MON trAdv_CFL_u_max              =   4.1409615555416E-02
(PID.TID 0000.0001) %MON trAdv_CFL_v_max              =   2.7140042004544E-02
(PID.TID 0000.0001) %MON trAdv_CFL_w_max              =   2.6560322155774E-02
(PID.TID 0000.0001) %MON advcfl_uvel_max              =   4.2655626456990E-02
(PID.TID 0000.0001) %MON advcfl_vvel_max              =   2.7752488678000E-02
(PID.TID 0000.0001) %MON advcfl_wvel_max              =   2.7018711828991E-02
(PID.TID 0000.0001) %MON advcfl_W_hf_max              =   3.2422454194789E-02
(PID.TID 0000.0001) %MON pe_b_mean                    =   4.8081719975223E-04
(PID.TID 0000.0001) %MON ke_max                       =   1.3059112644013E-02
(PID.TID 0000.0001) %MON ke_mean                      =   1.2154220361002E-04
(PID.TID 0000.0001) %MON ke_vol                       =   1.3226782436723E+18
(PID.TID 0000.0001) %MON vort_r_min                   =  -3.3921362821249E-07
(PID.TID 0000.0001) %MON vort_r_max                   =   4.0348232605771E-07
(PID.TID 0000.0001) %MON vort_a_mean                  =  -2.5274807212068E-05
(PID.TID 0000.0001) %MON vort_a_sd                    =   7.3604634204391E-05
(PID.TID 0000.0001) %MON vort_p_mean                  =  -3.1845655565894E-05
(PID.TID 0000.0001) %MON vort_p_sd                    =   1.3162464703607E-04
(PID.TID 0000.0001) %MON surfExpan_theta_mean         =   2.7731405579715E-07
(PID.TID 0000.0001) %MON surfExpan_salt_mean          =  -5.3935682170842E-08
(PID.TID 0000.0001) // =======================================================
(PID.TID 0000.0001) // End MONITOR dynamic field statistics
(PID.TID 0000.0001) // =======================================================
 EXTERNAL_FIELDS_LOAD,        64 : iP,iLd,i0,i1=    2    3    2    3 ; Wght=  0.3666666667  0.6333333333
 EXTERNAL_FIELDS_LOAD: (fu0,1),fu,fv= -1.4435E-02 -2.7199E-02 -2.2519E-02 -6.8325E-03
 EXTERNAL_FIELDS_LOAD: SST,SSS,Q,E-P= -3.1149E-01  3.4521E+01  2.2459E+02  8.8228E-06
DEBUG_STATS_RL:          Uvel (THERMODYNAMICS)  min= -1.26589977541821E-01
DEBUG_STATS_RL:          Uvel (THERMODYNAMICS)  max=  1.25153467094985E-01
DEBUG_STATS_RL:          Uvel (THERMODYNAMICS) mean=  5.69535110209003E-03
DEBUG_STATS_RL:          Uvel (THERMODYNAMICS) S.D.=  2.12198525019265E-02
DEBUG_STATS_RL:          Vvel (THERMODYNAMICS)  min= -9.61129723594564E-02
DEBUG_STATS_RL:          Vvel (THERMODYNAMICS)  max=  1.42844980113476E-01
DEBUG_STATS_RL:          Vvel (THERMODYNAMICS) mean=  5.45729649372158E-04
DEBUG_STATS_RL:          Vvel (THERMODYNAMICS) S.D.=  1.38180395191340E-02
DEBUG_STATS_RL:          Wvel (THERMODYNAMICS)  min= -7.47873991021980E-05
DEBUG_STATS_RL:          Wvel (THERMODYNAMICS)  max=  9.51491922417240E-05
DEBUG_STATS_RL:          Wvel (THERMODYNAMICS) mean= -1.41200234910798E-07
DEBUG_STATS_RL:          Wvel (THERMODYNAMICS) S.D.=  9.89047287800691E-06
DEBUG_STATS_RL:         Theta (THERMODYNAMICS)  min= -1.95971391540652E+00
DEBUG_STATS_RL:         Theta (THERMODYNAMICS)  max=  3.06684822476872E+01
DEBUG_STATS_RL:         Theta (THERMODYNAMICS) mean=  3.23007690132512E+00
DEBUG_STATS_RL:         Theta (THERMODYNAMICS) S.D.=  5.87953007570613E+00
DEBUG_STATS_RL:          Salt (THERMODYNAMICS)  min=  9.99999999999997E-03
DEBUG_STATS_RL:          Salt (THERMODYNAMICS)  max=  3.74774662793616E+01
DEBUG_STATS_RL:          Salt (THERMODYNAMICS) mean=  1.88547605240553E+01
DEBUG_STATS_RL:          Salt (THERMODYNAMICS) S.D.=  1.73002987803830E+01
DEBUG_STATS_RL:         GtNm1 (THERMODYNAMICS)  min= -5.33100909822952E-06
DEBUG_STATS_RL:         GtNm1 (THERMODYNAMICS)  max=  2.83400633463388E-06
DEBUG_STATS_RL:         GtNm1 (THERMODYNAMICS) mean=  3.36298195414066E-09
DEBUG_STATS_RL:         GtNm1 (THERMODYNAMICS) S.D.=  1.66254697933831E-07
DEBUG_STATS_RL:         GsNm1 (THERMODYNAMICS)  min= -5.84469653390234E-07
DEBUG_STATS_RL:         GsNm1 (THERMODYNAMICS)  max=  4.09377384005608E-07
DEBUG_STATS_RL:         GsNm1 (THERMODYNAMICS) mean= -3.84885667326693E-10
DEBUG_STATS_RL:         GsNm1 (THERMODYNAMICS) S.D.=  1.63138366463140E-08
DEBUG_STATS_RL:                EtaN (DYNAMICS)  min= -1.81647578879333E+00
DEBUG_STATS_RL:                EtaN (DYNAMICS)  max=  7.98227718478897E-01
DEBUG_STATS_RL:                EtaN (DYNAMICS) mean= -1.81824453073827E-01
DEBUG_STATS_RL:                EtaN (DYNAMICS) S.D.=  7.12497526330082E-01
DEBUG_STATS_RL:                Uvel (DYNAMICS)  min= -1.26589977541821E-01
DEBUG_STATS_RL:                Uvel (DYNAMICS)  max=  1.25153467094985E-01
DEBUG_STATS_RL:                Uvel (DYNAMICS) mean=  5.69535110209003E-03
DEBUG_STATS_RL:                Uvel (DYNAMICS) S.D.=  2.12198525019265E-02
DEBUG_STATS_RL:                Vvel (DYNAMICS)  min= -9.61129723594564E-02
DEBUG_STATS_RL:                Vvel (DYNAMICS)  max=  1.42844980113476E-01
DEBUG_STATS_RL:                Vvel (DYNAMICS) mean=  5.45729649372158E-04
DEBUG_STATS_RL:                Vvel (DYNAMICS) S.D.=  1.38180395191340E-02
DEBUG_STATS_RL:                Wvel (DYNAMICS)  min= -7.47873991021980E-05
DEBUG_STATS_RL:                Wvel (DYNAMICS)  max=  9.51491922417240E-05
DEBUG_STATS_RL:                Wvel (DYNAMICS) mean= -1.41200234910798E-07
DEBUG_STATS_RL:                Wvel (DYNAMICS) S.D.=  9.89047287800691E-06
DEBUG_STATS_RL:               Theta (DYNAMICS)  min= -1.95971391540652E+00
DEBUG_STATS_RL:               Theta (DYNAMICS)  max=  3.06684822476872E+01
DEBUG_STATS_RL:               Theta (DYNAMICS) mean=  3.23007690132512E+00
DEBUG_STATS_RL:               Theta (DYNAMICS) S.D.=  5.87953007570613E+00
DEBUG_STATS_RL:                Salt (DYNAMICS)  min=  9.99999999999997E-03
DEBUG_STATS_RL:                Salt (DYNAMICS)  max=  3.74774662793616E+01
DEBUG_STATS_RL:                Salt (DYNAMICS) mean=  1.88547605240553E+01
DEBUG_STATS_RL:                Salt (DYNAMICS) S.D.=  1.73002987803830E+01
DEBUG_STATS_RL:                  Gu (DYNAMICS)  min= -1.25530372298429E-01
DEBUG_STATS_RL:                  Gu (DYNAMICS)  max=  1.29357062198397E-01
DEBUG_STATS_RL:                  Gu (DYNAMICS) mean=  5.67413975696921E-03
DEBUG_STATS_RL:                  Gu (DYNAMICS) S.D.=  2.17447902073070E-02
DEBUG_STATS_RL:                  Gv (DYNAMICS)  min= -1.07320876457345E-01
DEBUG_STATS_RL:                  Gv (DYNAMICS)  max=  1.43771019992220E-01
DEBUG_STATS_RL:                  Gv (DYNAMICS) mean=  3.15347921041472E-03
DEBUG_STATS_RL:                  Gv (DYNAMICS) S.D.=  1.49490945593534E-02
DEBUG_STATS_RL:               GuNm1 (DYNAMICS)  min= -9.94439901215465E-06
DEBUG_STATS_RL:               GuNm1 (DYNAMICS)  max=  9.34198165300701E-06
DEBUG_STATS_RL:               GuNm1 (DYNAMICS) mean=  5.54512507567487E-09
DEBUG_STATS_RL:               GuNm1 (DYNAMICS) S.D.=  1.19882338992746E-06
DEBUG_STATS_RL:               GvNm1 (DYNAMICS)  min= -1.01182759256892E-05
DEBUG_STATS_RL:               GvNm1 (DYNAMICS)  max=  1.57366113528040E-05
DEBUG_STATS_RL:               GvNm1 (DYNAMICS) mean=  7.39599392633198E-07
DEBUG_STATS_RL:               GvNm1 (DYNAMICS) S.D.=  2.64434776302374E-06
DEBUG_STATS_RL:               GtNm1 (DYNAMICS)  min= -5.33100909822952E-06
DEBUG_STATS_RL:               GtNm1 (DYNAMICS)  max=  2.83400633463388E-06
DEBUG_STATS_RL:               GtNm1 (DYNAMICS) mean=  3.36298195414066E-09
DEBUG_STATS_RL:               GtNm1 (DYNAMICS) S.D.=  1.66254697933831E-07
DEBUG_STATS_RL:               GsNm1 (DYNAMICS)  min= -5.84469653390234E-07
DEBUG_STATS_RL:               GsNm1 (DYNAMICS)  max=  4.09377384005608E-07
DEBUG_STATS_RL:               GsNm1 (DYNAMICS) mean= -3.84885667326693E-10
DEBUG_STATS_RL:               GsNm1 (DYNAMICS) S.D.=  1.63138366463140E-08
DEBUG_STATS_RL:    cg2d_b (SOLVE_FOR_PRESSURE)  min= -1.94968668597918E+04
DEBUG_STATS_RL:    cg2d_b (SOLVE_FOR_PRESSURE)  max=  2.51215247790918E+04
DEBUG_STATS_RL:    cg2d_b (SOLVE_FOR_PRESSURE) mean=  4.56346579419870E+00
DEBUG_STATS_RL:    cg2d_b (SOLVE_FOR_PRESSURE) S.D.=  3.91991908388102E+03
 cg2d: Sum(rhs),rhsMax =   4.20532726674350E-01  1.65004900850711E+00
(PID.TID 0000.0001)  cg2d: iter=     1 ; resid.=  9.45793248742644E-02
(PID.TID 0000.0001)  cg2d: iter=     2 ; resid.=  8.64162205757442E-02
(PID.TID 0000.0001)  cg2d: iter=     3 ; resid.=  8.40957306229684E-02
(PID.TID 0000.0001)  cg2d: iter=     4 ; resid.=  7.68683551116740E-02
(PID.TID 0000.0001)  cg2d: iter=     5 ; resid.=  6.89008595261719E-02
(PID.TID 0000.0001)  cg2d: iter=     6 ; resid.=  5.86877471460833E-02
(PID.TID 0000.0001)  cg2d: iter=     7 ; resid.=  5.03680986678474E-02
(PID.TID 0000.0001)  cg2d: iter=     8 ; resid.=  4.22964445631309E-02
(PID.TID 0000.0001)  cg2d: iter=     9 ; resid.=  3.32420922683325E-02
(PID.TID 0000.0001)  cg2d: iter=    10 ; resid.=  2.59252836568823E-02
(PID.TID 0000.0001)  cg2d: iter=    11 ; resid.=  2.18815691141328E-02
(PID.TID 0000.0001)  cg2d: iter=    12 ; resid.=  1.81993103573966E-02
(PID.TID 0000.0001)  cg2d: iter=    13 ; resid.=  1.49230278412242E-02
(PID.TID 0000.0001)  cg2d: iter=    14 ; resid.=  1.22449308917972E-02
(PID.TID 0000.0001)  cg2d: iter=    15 ; resid.=  9.97609168591664E-03
(PID.TID 0000.0001)  cg2d: iter=    16 ; resid.=  8.13896056421250E-03
(PID.TID 0000.0001)  cg2d: iter=    17 ; resid.=  7.56380036180647E-03
(PID.TID 0000.0001)  cg2d: iter=    18 ; resid.=  6.22586611570091E-03
(PID.TID 0000.0001)  cg2d: iter=    19 ; resid.=  5.02401316165686E-03
(PID.TID 0000.0001)  cg2d: iter=    20 ; resid.=  4.19456834989458E-03
(PID.TID 0000.0001)  cg2d: iter=    21 ; resid.=  3.78820962880276E-03
(PID.TID 0000.0001)  cg2d: iter=    22 ; resid.=  3.36713972695883E-03
(PID.TID 0000.0001)  cg2d: iter=    23 ; resid.=  2.71443745067496E-03
(PID.TID 0000.0001)  cg2d: iter=    24 ; resid.=  2.14787636138474E-03
(PID.TID 0000.0001)  cg2d: iter=    25 ; resid.=  1.74100960903464E-03
(PID.TID 0000.0001)  cg2d: iter=    26 ; resid.=  1.36900995059164E-03
(PID.TID 0000.0001)  cg2d: iter=    27 ; resid.=  1.15486866898329E-03
(PID.TID 0000.0001)  cg2d: iter=    28 ; resid.=  9.59230859602803E-04
(PID.TID 0000.0001)  cg2d: iter=    29 ; resid.=  7.94915609840076E-04
(PID.TID 0000.0001)  cg2d: iter=    30 ; resid.=  6.16737625830165E-04
(PID.TID 0000.0001)  cg2d: iter=    31 ; resid.=  5.11493022161957E-04
(PID.TID 0000.0001)  cg2d: iter=    32 ; resid.=  3.72334874206734E-04
(PID.TID 0000.0001)  cg2d: iter=    33 ; resid.=  2.90616478415242E-04
(PID.TID 0000.0001)  cg2d: iter=    34 ; resid.=  2.62860530411021E-04
(PID.TID 0000.0001)  cg2d: iter=    35 ; resid.=  2.32354838248064E-04
(PID.TID 0000.0001)  cg2d: iter=    36 ; resid.=  1.98556602800388E-04
(PID.TID 0000.0001)  cg2d: iter=    37 ; resid.=  1.57687787334601E-04
(PID.TID 0000.0001)  cg2d: iter=    38 ; resid.=  1.36124975650291E-04
(PID.TID 0000.0001)  cg2d: iter=    39 ; resid.=  1.18447335187773E-04
(PID.TID 0000.0001)  cg2d: iter=    40 ; resid.=  9.79179135336574E-05
(PID.TID 0000.0001)  cg2d: iter=    41 ; resid.=  8.03422976118579E-05
(PID.TID 0000.0001)  cg2d: iter=    42 ; resid.=  7.28527241293140E-05
(PID.TID 0000.0001)  cg2d: iter=    43 ; resid.=  6.26490836447168E-05
(PID.TID 0000.0001)  cg2d: iter=    44 ; resid.=  5.14326316149873E-05
(PID.TID 0000.0001)  cg2d: iter=    45 ; resid.=  4.60574401858239E-05
(PID.TID 0000.0001)  cg2d: iter=    46 ; resid.=  3.73434130561712E-05
(PID.TID 0000.0001)  cg2d: iter=    47 ; resid.=  2.87989151388815E-05
(PID.TID 0000.0001)  cg2d: iter=    48 ; resid.=  2.36655626204963E-05
(PID.TID 0000.0001)  cg2d: iter=    49 ; resid.=  2.11186993243769E-05
(PID.TID 0000.0001)  cg2d: iter=    50 ; resid.=  1.90870592782567E-05
(PID.TID 0000.0001)  cg2d: iter=    51 ; resid.=  1.64376983645808E-05
(PID.TID 0000.0001)  cg2d: iter=    52 ; resid.=  1.36871410513046E-05
(PID.TID 0000.0001)  cg2d: iter=    53 ; resid.=  1.20590799257149E-05
(PID.TID 0000.0001)  cg2d: iter=    54 ; resid.=  1.02779258200519E-05
(PID.TID 0000.0001)  cg2d: iter=    55 ; resid.=  8.87543238936343E-06
(PID.TID 0000.0001)  cg2d: iter=    56 ; resid.=  6.98018592599607E-06
(PID.TID 0000.0001)  cg2d: iter=    57 ; resid.=  5.31135753924294E-06
(PID.TID 0000.0001)  cg2d: iter=    58 ; resid.=  4.11335797906593E-06
(PID.TID 0000.0001)  cg2d: iter=    59 ; resid.=  3.01656383817159E-06
(PID.TID 0000.0001)  cg2d: iter=    60 ; resid.=  2.43992768492335E-06
(PID.TID 0000.0001)  cg2d: iter=    61 ; resid.=  2.11844050020441E-06
(PID.TID 0000.0001)  cg2d: iter=    62 ; resid.=  1.73950702266382E-06
(PID.TID 0000.0001)  cg2d: iter=    63 ; resid.=  1.42970883962126E-06
(PID.TID 0000.0001)  cg2d: iter=    64 ; resid.=  1.14692115349087E-06
(PID.TID 0000.0001)  cg2d: iter=    65 ; resid.=  9.32109153705340E-07
(PID.TID 0000.0001)  cg2d: iter=    66 ; resid.=  7.24907316489537E-07
(PID.TID 0000.0001)  cg2d: iter=    67 ; resid.=  6.00178086207084E-07
(PID.TID 0000.0001)  cg2d: iter=    68 ; resid.=  5.76059922070532E-07
(PID.TID 0000.0001)  cg2d: iter=    69 ; resid.=  4.75174425757390E-07
(PID.TID 0000.0001)  cg2d: iter=    70 ; resid.=  3.72900648965701E-07
(PID.TID 0000.0001)  cg2d: iter=    71 ; resid.=  3.08319898906898E-07
(PID.TID 0000.0001)  cg2d: iter=    72 ; resid.=  2.59316168287791E-07
(PID.TID 0000.0001)  cg2d: iter=    73 ; resid.=  2.33116751857906E-07
(PID.TID 0000.0001)  cg2d: iter=    74 ; resid.=  2.05503488100847E-07
(PID.TID 0000.0001)  cg2d: iter=    75 ; resid.=  1.72904499937196E-07
(PID.TID 0000.0001)  cg2d: iter=    76 ; resid.=  1.44181720529957E-07
(PID.TID 0000.0001)  cg2d: iter=    77 ; resid.=  1.15171188138202E-07
(PID.TID 0000.0001)  cg2d: iter=    78 ; resid.=  9.32036526074888E-08
(PID.TID 0000.0001)  cg2d: iter=    79 ; resid.=  7.44854162169432E-08
(PID.TID 0000.0001)  cg2d: iter=    80 ; resid.=  5.64637874570381E-08
(PID.TID 0000.0001)  cg2d: iter=    81 ; resid.=  4.15883968501614E-08
(PID.TID 0000.0001)  cg2d: iter=    82 ; resid.=  3.11312498191220E-08
(PID.TID 0000.0001)  cg2d: iter=    83 ; resid.=  2.35579656689928E-08
(PID.TID 0000.0001)  cg2d: iter=    84 ; resid.=  1.91030617654045E-08
(PID.TID 0000.0001)  cg2d: iter=    85 ; resid.=  1.37831160312770E-08
(PID.TID 0000.0001)  cg2d: iter=    86 ; resid.=  1.04698201539618E-08
(PID.TID 0000.0001)  cg2d: iter=    87 ; resid.=  7.65748016062267E-09
(PID.TID 0000.0001)  cg2d: iter=    88 ; resid.=  5.49022513350062E-09
(PID.TID 0000.0001)  cg2d: iter=    89 ; resid.=  4.50367799259581E-09
(PID.TID 0000.0001)  cg2d: iter=    90 ; resid.=  3.98746365230538E-09
(PID.TID 0000.0001)  cg2d: iter=    91 ; resid.=  3.15937465645696E-09
(PID.TID 0000.0001)  cg2d: iter=    92 ; resid.=  2.41388500536017E-09
(PID.TID 0000.0001)  cg2d: iter=    93 ; resid.=  1.83484098465906E-09
(PID.TID 0000.0001)  cg2d: iter=    94 ; resid.=  1.40065713150348E-09
(PID.TID 0000.0001)  cg2d: iter=    95 ; resid.=  1.09942466919777E-09
(PID.TID 0000.0001)  cg2d: iter=    96 ; resid.=  8.37321531723345E-10
(PID.TID 0000.0001)  cg2d: iter=    97 ; resid.=  5.89626355719160E-10
(PID.TID 0000.0001)  cg2d: iter=    98 ; resid.=  4.36655341209404E-10
(PID.TID 0000.0001)  cg2d: iter=    99 ; resid.=  3.49569378473773E-10
(PID.TID 0000.0001)  cg2d: iter=   100 ; resid.=  2.95083134848463E-10
(PID.TID 0000.0001)  cg2d: iter=   101 ; resid.=  2.36761431846268E-10
(PID.TID 0000.0001)  cg2d: iter=   102 ; resid.=  1.76740363936509E-10
(PID.TID 0000.0001)  cg2d: iter=   103 ; resid.=  1.30398196629904E-10
(PID.TID 0000.0001)  cg2d: iter=   104 ; resid.=  1.09582526988000E-10
(PID.TID 0000.0001)  cg2d: iter=   105 ; resid.=  9.57849273499571E-11
(PID.TID 0000.0001)  cg2d: iter=   106 ; resid.=  7.96856021677578E-11
(PID.TID 0000.0001)  cg2d: iter=   107 ; resid.=  6.71039267140698E-11
(PID.TID 0000.0001)  cg2d: iter=   108 ; resid.=  6.08428223292014E-11
(PID.TID 0000.0001)  cg2d: iter=   109 ; resid.=  5.06422767056991E-11
(PID.TID 0000.0001)  cg2d: iter=   110 ; resid.=  4.03766928074215E-11
(PID.TID 0000.0001)  cg2d: iter=   111 ; resid.=  3.19260873415747E-11
(PID.TID 0000.0001)  cg2d: iter=   112 ; resid.=  2.50103244504718E-11
(PID.TID 0000.0001)  cg2d: iter=   113 ; resid.=  1.87514131670220E-11
(PID.TID 0000.0001)  cg2d: iter=   114 ; resid.=  1.40666947091380E-11
(PID.TID 0000.0001)  cg2d: iter=   115 ; resid.=  1.04151984428757E-11
(PID.TID 0000.0001)  cg2d: iter=   116 ; resid.=  8.14885893653649E-12
(PID.TID 0000.0001)  cg2d: iter=   117 ; resid.=  6.73850714773868E-12
(PID.TID 0000.0001)  cg2d: iter=   118 ; resid.=  5.18496443227450E-12
(PID.TID 0000.0001)  cg2d: iter=   119 ; resid.=  4.12338583602888E-12
(PID.TID 0000.0001)  cg2d: iter=   120 ; resid.=  3.36843175978470E-12
(PID.TID 0000.0001)  cg2d: iter=   121 ; resid.=  2.54593857437283E-12
(PID.TID 0000.0001)  cg2d: iter=   122 ; resid.=  1.98065906167397E-12
(PID.TID 0000.0001)  cg2d: iter=   123 ; resid.=  1.71258828340272E-12
(PID.TID 0000.0001)  cg2d: iter=   124 ; resid.=  1.36245587261260E-12
(PID.TID 0000.0001)  cg2d: iter=   125 ; resid.=  9.86611920292845E-13
(PID.TID 0000.0001)  cg2d: iter=   126 ; resid.=  6.77940727492978E-13
(PID.TID 0000.0001)  cg2d: iter=   127 ; resid.=  4.60203592157176E-13
(PID.TID 0000.0001)  cg2d: iter=   128 ; resid.=  2.97727554556544E-13
(PID.TID 0000.0001)  cg2d: iter=   129 ; resid.=  1.80840135748941E-13
(PID.TID 0000.0001)  cg2d: iter=   130 ; resid.=  1.14993535785241E-13
(PID.TID 0000.0001)  cg2d: iter=   131 ; resid.=  7.55830020303041E-14
DEBUG_STATS_RL:    cg2d_x (SOLVE_FOR_PRESSURE)  min= -1.77414492841833E+01
DEBUG_STATS_RL:    cg2d_x (SOLVE_FOR_PRESSURE)  max=  8.08856093713514E+00
DEBUG_STATS_RL:    cg2d_x (SOLVE_FOR_PRESSURE) mean= -1.79606111900194E+00
DEBUG_STATS_RL:    cg2d_x (SOLVE_FOR_PRESSURE) S.D.=  7.06012789217492E+00
(PID.TID 0000.0001)      cg2d_init_res =   2.60212972935064E-01
(PID.TID 0000.0001)      cg2d_iters(min,last) =      -1     131
(PID.TID 0000.0001)      cg2d_last_res =   7.55830020303041E-14
(PID.TID 0000.0001) // =======================================================
(PID.TID 0000.0001) // Begin MONITOR dynamic field statistics
(PID.TID 0000.0001) // =======================================================
(PID.TID 0000.0001) %MON time_tsnumber                =                    65
(PID.TID 0000.0001) %MON time_secondsf                =   5.6160000000000E+06
(PID.TID 0000.0001) %MON dynstat_eta_max              =   8.2452201194039E-01
(PID.TID 0000.0001) %MON dynstat_eta_min              =  -1.8085065529239E+00
(PID.TID 0000.0001) %MON dynstat_eta_mean             =  -4.7614107051683E-03
(PID.TID 0000.0001) %MON dynstat_eta_sd               =   6.2050653552853E-01
(PID.TID 0000.0001) %MON dynstat_eta_del2             =   2.3911384448255E-03
(PID.TID 0000.0001) %MON dynstat_uvel_max             =   1.3052791618763E-01
(PID.TID 0000.0001) %MON dynstat_uvel_min             =  -1.2596779726265E-01
(PID.TID 0000.0001) %MON dynstat_uvel_mean            =   2.2905363949431E-03
(PID.TID 0000.0001) %MON dynstat_uvel_sd              =   1.3810023458184E-02
(PID.TID 0000.0001) %MON dynstat_uvel_del2            =   8.5668272027738E-05
(PID.TID 0000.0001) %MON dynstat_vvel_max             =   1.4509136383920E-01
(PID.TID 0000.0001) %MON dynstat_vvel_min             =  -9.6728092003794E-02
(PID.TID 0000.0001) %MON dynstat_vvel_mean            =   3.9632802374945E-05
(PID.TID 0000.0001) %MON dynstat_vvel_sd              =   8.6177718502672E-03
(PID.TID 0000.0001) %MON dynstat_vvel_del2            =   7.3521272575744E-05
(PID.TID 0000.0001) %MON dynstat_wvel_max             =   9.1902076087144E-05
(PID.TID 0000.0001) %MON dynstat_wvel_min             =  -7.7279077663353E-05
(PID.TID 0000.0001) %MON dynstat_wvel_mean            =   4.7490898829819E-23
(PID.TID 0000.0001) %MON dynstat_wvel_sd              =   1.1103734518092E-05
(PID.TID 0000.0001) %MON dynstat_wvel_del2            =   1.1303064443565E-07
(PID.TID 0000.0001) %MON dynstat_theta_max            =   3.0668482247687E+01
(PID.TID 0000.0001) %MON dynstat_theta_min            =  -1.9597139154065E+00
(PID.TID 0000.0001) %MON dynstat_theta_mean           =   3.6335068455255E+00
(PID.TID 0000.0001) %MON dynstat_theta_sd             =   4.4247135927411E+00
(PID.TID 0000.0001) %MON dynstat_theta_del2           =   4.8947207202906E-03
(PID.TID 0000.0001) %MON dynstat_salt_max             =   3.7477466279362E+01
(PID.TID 0000.0001) %MON dynstat_salt_min             =   2.9893329771197E+01
(PID.TID 0000.0001) %MON dynstat_salt_mean            =   3.4727989870476E+01
(PID.TID 0000.0001) %MON dynstat_salt_sd              =   2.9646633781924E-01
(PID.TID 0000.0001) %MON dynstat_salt_del2            =   9.8965965147410E-04
(PID.TID 0000.0001) %MON dynstat_sst_max              =   3.0668482247687E+01
(PID.TID 0000.0001) %MON dynstat_sst_min              =  -1.9597139154065E+00
(PID.TID 0000.0001) %MON dynstat_sst_mean             =   1.9023169475777E+01
(PID.TID 0000.0001) %MON dynstat_sst_sd               =   9.0858181689923E+00
(PID.TID 0000.0001) %MON dynstat_sst_del2             =   2.8152585242508E-02
(PID.TID 0000.0001) %MON dynstat_sss_max              =   3.7459900112280E+01
(PID.TID 0000.0001) %MON dynstat_sss_min              =   2.9893329771197E+01
(PID.TID 0000.0001) %MON dynstat_sss_mean             =   3.4848838076094E+01
(PID.TID 0000.0001) %MON dynstat_sss_sd               =   9.8219662808160E-01
(PID.TID 0000.0001) %MON dynstat_sss_del2             =   8.0433459724600E-03
(PID.TID 0000.0001) %MON forcing_qnet_max             =   3.0528735860189E+02
(PID.TID 0000.0001) %MON forcing_qnet_min             =  -1.6714766286214E+02
(PID.TID 0000.0001) %MON forcing_qnet_mean            =  -9.7218004860374E+00
(PID.TID 0000.0001) %MON forcing_qnet_sd              =   5.5429663487321E+01
(PID.TID 0000.0001) %MON forcing_qnet_del2            =   8.6929108009557E-01
(PID.TID 0000.0001) %MON forcing_qsw_max              =   0.0000000000000E+00
(PID.TID 0000.0001) %MON forcing_qsw_min              =   0.0000000000000E+00
(PID.TID 0000.0001) %MON forcing_qsw_mean             =   0.0000000000000E+00
(PID.TID 0000.0001) %MON forcing_qsw_sd               =   0.0000000000000E+00
(PID.TID 0000.0001) %MON forcing_qsw_del2             =   0.0000000000000E+00
(PID.TID 0000.0001) %MON forcing_empmr_max            =   6.9172141555403E-05
(PID.TID 0000.0001) %MON forcing_empmr_min            =  -7.8873442059072E-05
(PID.TID 0000.0001) %MON forcing_empmr_mean           =   6.9470029329661E-07
(PID.TID 0000.0001) %MON forcing_empmr_sd             =   2.6662470783822E-05
(PID.TID 0000.0001) %MON forcing_empmr_del2           =   3.5610054420546E-07
(PID.TID 0000.0001) %MON forcing_fu_max               =   3.3619582355022E-01
(PID.TID 0000.0001) %MON forcing_fu_min               =  -3.1846311191718E-01
(PID.TID 0000.0001) %MON forcing_fu_mean              =   1.9420533816345E-02
(PID.TID 0000.0001) %MON forcing_fu_sd                =   9.6733067225558E-02
(PID.TID 0000.0001) %MON forcing_fu_del2              =   7.3574349447110E-04
(PID.TID 0000.0001) %MON forcing_fv_max               =   1.4864443540573E-01
(PID.TID 0000.0001) %MON forcing_fv_min               =  -1.7685593118270E-01
(PID.TID 0000.0001) %MON forcing_fv_mean              =  -7.4148635903804E-03
(PID.TID 0000.0001) %MON forcing_fv_sd                =   4.1716101821581E-02
(PID.TID 0000.0001) %MON forcing_fv_del2              =   4.6757590300349E-04
(PID.TID 0000.0001) %MON trAdv_CFL_u_max              =   4.2664290119802E-02
(PID.TID 0000.0001) %MON trAdv_CFL_v_max              =   2.7639396745948E-02
(PID.TID 0000.0001) %MON trAdv_CFL_w_max              =   2.7327414875408E-02
(PID.TID 0000.0001) %MON advcfl_uvel_max              =   4.3657136639802E-02
(PID.TID 0000.0001) %MON advcfl_vvel_max              =   2.8188925008244E-02
(PID.TID 0000.0001) %MON advcfl_wvel_max              =   2.7342454944233E-02
(PID.TID 0000.0001) %MON advcfl_W_hf_max              =   3.2810945933080E-02
(PID.TID 0000.0001) %MON pe_b_mean                    =   4.9271920630688E-04
(PID.TID 0000.0001) %MON ke_max                       =   1.2711401807821E-02
(PID.TID 0000.0001) %MON ke_mean                      =   1.2237105939122E-04
(PID.TID 0000.0001) %MON ke_vol                       =   1.3226782436723E+18
(PID.TID 0000.0001) %MON vort_r_min                   =  -3.2519552795124E-07
(PID.TID 0000.0001) %MON vort_r_max                   =   4.0418026442608E-07
(PID.TID 0000.0001) %MON vort_a_mean                  =  -2.5274807150429E-05
(PID.TID 0000.0001) %MON vort_a_sd                    =   7.3604642126918E-05
(PID.TID 0000.0001) %MON vort_p_mean                  =  -3.1845655488230E-05
(PID.TID 0000.0001) %MON vort_p_sd                    =   1.3162467823794E-04
(PID.TID 0000.0001) %MON surfExpan_theta_mean         =   3.1281086416364E-07
(PID.TID 0000.0001) %MON surfExpan_salt_mean          =  -6.4304315402770E-08
(PID.TID 0000.0001) // =======================================================
(PID.TID 0000.0001) // End MONITOR dynamic field statistics
(PID.TID 0000.0001) // =======================================================
 EXTERNAL_FIELDS_LOAD,        65 : iP,iLd,i0,i1=    2    3    2    3 ; Wght=  0.3333333333  0.6666666667
 EXTERNAL_FIELDS_LOAD: (fu0,1),fu,fv= -1.4435E-02 -2.7199E-02 -2.2944E-02 -6.2639E-03
 EXTERNAL_FIELDS_LOAD: SST,SSS,Q,E-P= -2.9989E-01  3.4526E+01  2.2376E+02  8.8463E-06
DEBUG_STATS_RL:          Uvel (THERMODYNAMICS)  min= -1.25967797262648E-01
DEBUG_STATS_RL:          Uvel (THERMODYNAMICS)  max=  1.30527916187632E-01
DEBUG_STATS_RL:          Uvel (THERMODYNAMICS) mean=  5.75384684548845E-03
DEBUG_STATS_RL:          Uvel (THERMODYNAMICS) S.D.=  2.13910947302418E-02
DEBUG_STATS_RL:          Vvel (THERMODYNAMICS)  min= -9.67280920037939E-02
DEBUG_STATS_RL:          Vvel (THERMODYNAMICS)  max=  1.45091363839197E-01
DEBUG_STATS_RL:          Vvel (THERMODYNAMICS) mean=  4.90712114524805E-04
DEBUG_STATS_RL:          Vvel (THERMODYNAMICS) S.D.=  1.37575848261621E-02
DEBUG_STATS_RL:          Wvel (THERMODYNAMICS)  min= -7.72790776633528E-05
DEBUG_STATS_RL:          Wvel (THERMODYNAMICS)  max=  9.19020760871444E-05
DEBUG_STATS_RL:          Wvel (THERMODYNAMICS) mean= -1.45548613657597E-07
DEBUG_STATS_RL:          Wvel (THERMODYNAMICS) S.D.=  9.77969817089488E-06
DEBUG_STATS_RL:         Theta (THERMODYNAMICS)  min= -1.95818052920400E+00
DEBUG_STATS_RL:         Theta (THERMODYNAMICS)  max=  3.06917939218700E+01
DEBUG_STATS_RL:         Theta (THERMODYNAMICS) mean=  3.23022802541333E+00
DEBUG_STATS_RL:         Theta (THERMODYNAMICS) S.D.=  5.87999213276487E+00
DEBUG_STATS_RL:          Salt (THERMODYNAMICS)  min=  9.99999999999997E-03
DEBUG_STATS_RL:          Salt (THERMODYNAMICS)  max=  3.74774373702130E+01
DEBUG_STATS_RL:          Salt (THERMODYNAMICS) mean=  1.88547500812911E+01
DEBUG_STATS_RL:          Salt (THERMODYNAMICS) S.D.=  1.73002897977921E+01
DEBUG_STATS_RL:         GtNm1 (THERMODYNAMICS)  min= -5.08914414582834E-06
DEBUG_STATS_RL:         GtNm1 (THERMODYNAMICS)  max=  2.67584125188250E-06
DEBUG_STATS_RL:         GtNm1 (THERMODYNAMICS) mean=  3.43460075661030E-09
DEBUG_STATS_RL:         GtNm1 (THERMODYNAMICS) S.D.=  1.64299048361040E-07
DEBUG_STATS_RL:         GsNm1 (THERMODYNAMICS)  min= -5.72092087799018E-07
DEBUG_STATS_RL:         GsNm1 (THERMODYNAMICS)  max=  3.98514289252108E-07
DEBUG_STATS_RL:         GsNm1 (THERMODYNAMICS) mean= -3.47314577190926E-10
DEBUG_STATS_RL:         GsNm1 (THERMODYNAMICS) S.D.=  1.59739001558766E-08
DEBUG_STATS_RL:                EtaN (DYNAMICS)  min= -1.80850655292392E+00
DEBUG_STATS_RL:                EtaN (DYNAMICS)  max=  8.24522011940387E-01
DEBUG_STATS_RL:                EtaN (DYNAMICS) mean= -1.83084721610799E-01
DEBUG_STATS_RL:                EtaN (DYNAMICS) S.D.=  7.19686839161564E-01
DEBUG_STATS_RL:                Uvel (DYNAMICS)  min= -1.25967797262648E-01
DEBUG_STATS_RL:                Uvel (DYNAMICS)  max=  1.30527916187632E-01
DEBUG_STATS_RL:                Uvel (DYNAMICS) mean=  5.75384684548845E-03
DEBUG_STATS_RL:                Uvel (DYNAMICS) S.D.=  2.13910947302418E-02
DEBUG_STATS_RL:                Vvel (DYNAMICS)  min= -9.67280920037939E-02
DEBUG_STATS_RL:                Vvel (DYNAMICS)  max=  1.45091363839197E-01
DEBUG_STATS_RL:                Vvel (DYNAMICS) mean=  4.90712114524805E-04
DEBUG_STATS_RL:                Vvel (DYNAMICS) S.D.=  1.37575848261621E-02
DEBUG_STATS_RL:                Wvel (DYNAMICS)  min= -7.72790776633528E-05
DEBUG_STATS_RL:                Wvel (DYNAMICS)  max=  9.19020760871444E-05
DEBUG_STATS_RL:                Wvel (DYNAMICS) mean= -1.45548613657597E-07
DEBUG_STATS_RL:                Wvel (DYNAMICS) S.D.=  9.77969817089488E-06
DEBUG_STATS_RL:               Theta (DYNAMICS)  min= -1.95818052920400E+00
DEBUG_STATS_RL:               Theta (DYNAMICS)  max=  3.06917939218700E+01
DEBUG_STATS_RL:               Theta (DYNAMICS) mean=  3.23022802541333E+00
DEBUG_STATS_RL:               Theta (DYNAMICS) S.D.=  5.87999213276487E+00
DEBUG_STATS_RL:                Salt (DYNAMICS)  min=  9.99999999999997E-03
DEBUG_STATS_RL:                Salt (DYNAMICS)  max=  3.74774373702130E+01
DEBUG_STATS_RL:                Salt (DYNAMICS) mean=  1.88547500812911E+01
DEBUG_STATS_RL:                Salt (DYNAMICS) S.D.=  1.73002897977921E+01
DEBUG_STATS_RL:                  Gu (DYNAMICS)  min= -1.24749609134558E-01
DEBUG_STATS_RL:                  Gu (DYNAMICS)  max=  1.34350481602542E-01
DEBUG_STATS_RL:                  Gu (DYNAMICS) mean=  5.72927115155979E-03
DEBUG_STATS_RL:                  Gu (DYNAMICS) S.D.=  2.19416357625773E-02
DEBUG_STATS_RL:                  Gv (DYNAMICS)  min= -1.06889937346372E-01
DEBUG_STATS_RL:                  Gv (DYNAMICS)  max=  1.45926435421903E-01
DEBUG_STATS_RL:                  Gv (DYNAMICS) mean=  3.13304308512415E-03
DEBUG_STATS_RL:                  Gv (DYNAMICS) S.D.=  1.48617740312306E-02
DEBUG_STATS_RL:               GuNm1 (DYNAMICS)  min= -9.98719899401229E-06
DEBUG_STATS_RL:               GuNm1 (DYNAMICS)  max=  9.33523988018445E-06
DEBUG_STATS_RL:               GuNm1 (DYNAMICS) mean=  5.69000389236290E-09
DEBUG_STATS_RL:               GuNm1 (DYNAMICS) S.D.=  1.19981087737591E-06
DEBUG_STATS_RL:               GvNm1 (DYNAMICS)  min= -1.01498711556201E-05
DEBUG_STATS_RL:               GvNm1 (DYNAMICS)  max=  1.57073749989474E-05
DEBUG_STATS_RL:               GvNm1 (DYNAMICS) mean=  7.39266195309653E-07
DEBUG_STATS_RL:               GvNm1 (DYNAMICS) S.D.=  2.64310611589068E-06
DEBUG_STATS_RL:               GtNm1 (DYNAMICS)  min= -5.08914414582834E-06
DEBUG_STATS_RL:               GtNm1 (DYNAMICS)  max=  2.67584125188250E-06
DEBUG_STATS_RL:               GtNm1 (DYNAMICS) mean=  3.43460075661030E-09
DEBUG_STATS_RL:               GtNm1 (DYNAMICS) S.D.=  1.64299048361040E-07
DEBUG_STATS_RL:               GsNm1 (DYNAMICS)  min= -5.72092087799018E-07
DEBUG_STATS_RL:               GsNm1 (DYNAMICS)  max=  3.98514289252108E-07
DEBUG_STATS_RL:               GsNm1 (DYNAMICS) mean= -3.47314577190926E-10
DEBUG_STATS_RL:               GsNm1 (DYNAMICS) S.D.=  1.59739001558766E-08
DEBUG_STATS_RL:    cg2d_b (SOLVE_FOR_PRESSURE)  min= -1.93692596302455E+04
DEBUG_STATS_RL:    cg2d_b (SOLVE_FOR_PRESSURE)  max=  2.50207487316530E+04
DEBUG_STATS_RL:    cg2d_b (SOLVE_FOR_PRESSURE) mean=  4.61799996732642E+00
DEBUG_STATS_RL:    cg2d_b (SOLVE_FOR_PRESSURE) S.D.=  3.92274816026251E+03
 cg2d: Sum(rhs),rhsMax =   4.27272182740074E-01  1.64342976789095E+00
(PID.TID 0000.0001)  cg2d: iter=     1 ; resid.=  9.66179095786797E-02
(PID.TID 0000.0001)  cg2d: iter=     2 ; resid.=  8.98715220098324E-02
(PID.TID 0000.0001)  cg2d: iter=     3 ; resid.=  8.79319103453934E-02
(PID.TID 0000.0001)  cg2d: iter=     4 ; resid.=  7.96411141580629E-02
(PID.TID 0000.0001)  cg2d: iter=     5 ; resid.=  7.30022721629289E-02
(PID.TID 0000.0001)  cg2d: iter=     6 ; resid.=  6.40098146530064E-02
(PID.TID 0000.0001)  cg2d: iter=     7 ; resid.=  5.34794200750029E-02
(PID.TID 0000.0001)  cg2d: iter=     8 ; resid.=  4.30539017121760E-02
(PID.TID 0000.0001)  cg2d: iter=     9 ; resid.=  3.34852521207753E-02
(PID.TID 0000.0001)  cg2d: iter=    10 ; resid.=  2.54263627382449E-02
(PID.TID 0000.0001)  cg2d: iter=    11 ; resid.=  2.17250387731252E-02
(PID.TID 0000.0001)  cg2d: iter=    12 ; resid.=  1.85186106053245E-02
(PID.TID 0000.0001)  cg2d: iter=    13 ; resid.=  1.52940627777004E-02
(PID.TID 0000.0001)  cg2d: iter=    14 ; resid.=  1.26357131350557E-02
(PID.TID 0000.0001)  cg2d: iter=    15 ; resid.=  1.02839079894459E-02
(PID.TID 0000.0001)  cg2d: iter=    16 ; resid.=  8.46677643811821E-03
(PID.TID 0000.0001)  cg2d: iter=    17 ; resid.=  7.88886337274664E-03
(PID.TID 0000.0001)  cg2d: iter=    18 ; resid.=  6.46477115228224E-03
(PID.TID 0000.0001)  cg2d: iter=    19 ; resid.=  5.13341899054049E-03
(PID.TID 0000.0001)  cg2d: iter=    20 ; resid.=  4.21933052362440E-03
(PID.TID 0000.0001)  cg2d: iter=    21 ; resid.=  3.81634948243777E-03
(PID.TID 0000.0001)  cg2d: iter=    22 ; resid.=  3.40232013907300E-03
(PID.TID 0000.0001)  cg2d: iter=    23 ; resid.=  2.77200180806954E-03
(PID.TID 0000.0001)  cg2d: iter=    24 ; resid.=  2.19521842118357E-03
(PID.TID 0000.0001)  cg2d: iter=    25 ; resid.=  1.76901523026182E-03
(PID.TID 0000.0001)  cg2d: iter=    26 ; resid.=  1.38196197638967E-03
(PID.TID 0000.0001)  cg2d: iter=    27 ; resid.=  1.15488688699959E-03
(PID.TID 0000.0001)  cg2d: iter=    28 ; resid.=  9.41115061175101E-04
(PID.TID 0000.0001)  cg2d: iter=    29 ; resid.=  7.80321490024587E-04
(PID.TID 0000.0001)  cg2d: iter=    30 ; resid.=  6.07012099823199E-04
(PID.TID 0000.0001)  cg2d: iter=    31 ; resid.=  5.02192307981466E-04
(PID.TID 0000.0001)  cg2d: iter=    32 ; resid.=  3.62992378634471E-04
(PID.TID 0000.0001)  cg2d: iter=    33 ; resid.=  2.78753090631558E-04
(PID.TID 0000.0001)  cg2d: iter=    34 ; resid.=  2.49862821555469E-04
(PID.TID 0000.0001)  cg2d: iter=    35 ; resid.=  2.22527110537604E-04
(PID.TID 0000.0001)  cg2d: iter=    36 ; resid.=  1.90731260759600E-04
(PID.TID 0000.0001)  cg2d: iter=    37 ; resid.=  1.50881485231390E-04
(PID.TID 0000.0001)  cg2d: iter=    38 ; resid.=  1.30937527399397E-04
(PID.TID 0000.0001)  cg2d: iter=    39 ; resid.=  1.13385036460650E-04
(PID.TID 0000.0001)  cg2d: iter=    40 ; resid.=  9.22460836072311E-05
(PID.TID 0000.0001)  cg2d: iter=    41 ; resid.=  7.41877802665994E-05
(PID.TID 0000.0001)  cg2d: iter=    42 ; resid.=  6.59258938704342E-05
(PID.TID 0000.0001)  cg2d: iter=    43 ; resid.=  5.54727632358020E-05
(PID.TID 0000.0001)  cg2d: iter=    44 ; resid.=  4.56451308429586E-05
(PID.TID 0000.0001)  cg2d: iter=    45 ; resid.=  4.16169107025066E-05
(PID.TID 0000.0001)  cg2d: iter=    46 ; resid.=  3.34277633165055E-05
(PID.TID 0000.0001)  cg2d: iter=    47 ; resid.=  2.55104213709324E-05
(PID.TID 0000.0001)  cg2d: iter=    48 ; resid.=  2.08275918786652E-05
(PID.TID 0000.0001)  cg2d: iter=    49 ; resid.=  1.84736376163562E-05
(PID.TID 0000.0001)  cg2d: iter=    50 ; resid.=  1.67723209081299E-05
(PID.TID 0000.0001)  cg2d: iter=    51 ; resid.=  1.47375046755657E-05
(PID.TID 0000.0001)  cg2d: iter=    52 ; resid.=  1.26922405637302E-05
(PID.TID 0000.0001)  cg2d: iter=    53 ; resid.=  1.13197819528485E-05
(PID.TID 0000.0001)  cg2d: iter=    54 ; resid.=  9.72238139413577E-06
(PID.TID 0000.0001)  cg2d: iter=    55 ; resid.=  8.40273716015730E-06
(PID.TID 0000.0001)  cg2d: iter=    56 ; resid.=  6.65994154822841E-06
(PID.TID 0000.0001)  cg2d: iter=    57 ; resid.=  5.12113369802135E-06
(PID.TID 0000.0001)  cg2d: iter=    58 ; resid.=  3.99376559324549E-06
(PID.TID 0000.0001)  cg2d: iter=    59 ; resid.=  2.94267091781907E-06
(PID.TID 0000.0001)  cg2d: iter=    60 ; resid.=  2.36825083415821E-06
(PID.TID 0000.0001)  cg2d: iter=    61 ; resid.=  2.08201652548419E-06
(PID.TID 0000.0001)  cg2d: iter=    62 ; resid.=  1.77000893197391E-06
(PID.TID 0000.0001)  cg2d: iter=    63 ; resid.=  1.49020832221934E-06
(PID.TID 0000.0001)  cg2d: iter=    64 ; resid.=  1.19866223798453E-06
(PID.TID 0000.0001)  cg2d: iter=    65 ; resid.=  9.63201821542169E-07
(PID.TID 0000.0001)  cg2d: iter=    66 ; resid.=  7.49175803167473E-07
(PID.TID 0000.0001)  cg2d: iter=    67 ; resid.=  6.17629077857118E-07
(PID.TID 0000.0001)  cg2d: iter=    68 ; resid.=  6.12748272216325E-07
(PID.TID 0000.0001)  cg2d: iter=    69 ; resid.=  5.10605828721575E-07
(PID.TID 0000.0001)  cg2d: iter=    70 ; resid.=  4.07531442676224E-07
(PID.TID 0000.0001)  cg2d: iter=    71 ; resid.=  3.37098195953098E-07
(PID.TID 0000.0001)  cg2d: iter=    72 ; resid.=  2.82236790643351E-07
(PID.TID 0000.0001)  cg2d: iter=    73 ; resid.=  2.50612515861532E-07
(PID.TID 0000.0001)  cg2d: iter=    74 ; resid.=  2.19459033421522E-07
(PID.TID 0000.0001)  cg2d: iter=    75 ; resid.=  1.83487876614324E-07
(PID.TID 0000.0001)  cg2d: iter=    76 ; resid.=  1.49921713000477E-07
(PID.TID 0000.0001)  cg2d: iter=    77 ; resid.=  1.20084252809027E-07
(PID.TID 0000.0001)  cg2d: iter=    78 ; resid.=  9.54818303632160E-08
(PID.TID 0000.0001)  cg2d: iter=    79 ; resid.=  7.41544476805602E-08
(PID.TID 0000.0001)  cg2d: iter=    80 ; resid.=  5.44217847156808E-08
(PID.TID 0000.0001)  cg2d: iter=    81 ; resid.=  3.94908842309210E-08
(PID.TID 0000.0001)  cg2d: iter=    82 ; resid.=  2.89509575664806E-08
(PID.TID 0000.0001)  cg2d: iter=    83 ; resid.=  2.15568318551258E-08
(PID.TID 0000.0001)  cg2d: iter=    84 ; resid.=  1.75294251710720E-08
(PID.TID 0000.0001)  cg2d: iter=    85 ; resid.=  1.28139391432579E-08
(PID.TID 0000.0001)  cg2d: iter=    86 ; resid.=  9.71839917766919E-09
(PID.TID 0000.0001)  cg2d: iter=    87 ; resid.=  7.17569611465339E-09
(PID.TID 0000.0001)  cg2d: iter=    88 ; resid.=  5.01087804378973E-09
(PID.TID 0000.0001)  cg2d: iter=    89 ; resid.=  3.99900199957434E-09
(PID.TID 0000.0001)  cg2d: iter=    90 ; resid.=  3.39467833699233E-09
(PID.TID 0000.0001)  cg2d: iter=    91 ; resid.=  2.72102441740374E-09
(PID.TID 0000.0001)  cg2d: iter=    92 ; resid.=  2.18198339477411E-09
(PID.TID 0000.0001)  cg2d: iter=    93 ; resid.=  1.76670474709554E-09
(PID.TID 0000.0001)  cg2d: iter=    94 ; resid.=  1.40197803850451E-09
(PID.TID 0000.0001)  cg2d: iter=    95 ; resid.=  1.13057992611559E-09
(PID.TID 0000.0001)  cg2d: iter=    96 ; resid.=  8.87779352813640E-10
(PID.TID 0000.0001)  cg2d: iter=    97 ; resid.=  6.50124234834794E-10
(PID.TID 0000.0001)  cg2d: iter=    98 ; resid.=  5.03811781097651E-10
(PID.TID 0000.0001)  cg2d: iter=    99 ; resid.=  4.19442376546567E-10
(PID.TID 0000.0001)  cg2d: iter=   100 ; resid.=  3.68510260195952E-10
(PID.TID 0000.0001)  cg2d: iter=   101 ; resid.=  3.05701025850170E-10
(PID.TID 0000.0001)  cg2d: iter=   102 ; resid.=  2.40605753496056E-10
(PID.TID 0000.0001)  cg2d: iter=   103 ; resid.=  1.89831613555312E-10
(PID.TID 0000.0001)  cg2d: iter=   104 ; resid.=  1.67288528513606E-10
(PID.TID 0000.0001)  cg2d: iter=   105 ; resid.=  1.42747315947160E-10
(PID.TID 0000.0001)  cg2d: iter=   106 ; resid.=  1.16101589357352E-10
(PID.TID 0000.0001)  cg2d: iter=   107 ; resid.=  9.36859987527821E-11
(PID.TID 0000.0001)  cg2d: iter=   108 ; resid.=  7.93160921129269E-11
(PID.TID 0000.0001)  cg2d: iter=   109 ; resid.=  6.13892725457470E-11
(PID.TID 0000.0001)  cg2d: iter=   110 ; resid.=  4.59877125242993E-11
(PID.TID 0000.0001)  cg2d: iter=   111 ; resid.=  3.55043307391343E-11
(PID.TID 0000.0001)  cg2d: iter=   112 ; resid.=  2.65008341636088E-11
(PID.TID 0000.0001)  cg2d: iter=   113 ; resid.=  1.91418450777110E-11
(PID.TID 0000.0001)  cg2d: iter=   114 ; resid.=  1.39408925626946E-11
(PID.TID 0000.0001)  cg2d: iter=   115 ; resid.=  1.01561632044500E-11
(PID.TID 0000.0001)  cg2d: iter=   116 ; resid.=  7.87059195799771E-12
(PID.TID 0000.0001)  cg2d: iter=   117 ; resid.=  6.56324333234508E-12
(PID.TID 0000.0001)  cg2d: iter=   118 ; resid.=  5.12262379599120E-12
(PID.TID 0000.0001)  cg2d: iter=   119 ; resid.=  4.07808872929495E-12
(PID.TID 0000.0001)  cg2d: iter=   120 ; resid.=  3.33146402843832E-12
(PID.TID 0000.0001)  cg2d: iter=   121 ; resid.=  2.49880829734006E-12
(PID.TID 0000.0001)  cg2d: iter=   122 ; resid.=  1.90486795297783E-12
(PID.TID 0000.0001)  cg2d: iter=   123 ; resid.=  1.59520277057616E-12
(PID.TID 0000.0001)  cg2d: iter=   124 ; resid.=  1.26539890919131E-12
(PID.TID 0000.0001)  cg2d: iter=   125 ; resid.=  9.25483145981197E-13
(PID.TID 0000.0001)  cg2d: iter=   126 ; resid.=  6.55245516726253E-13
(PID.TID 0000.0001)  cg2d: iter=   127 ; resid.=  4.50752113408822E-13
(PID.TID 0000.0001)  cg2d: iter=   128 ; resid.=  2.95436479005061E-13
(PID.TID 0000.0001)  cg2d: iter=   129 ; resid.=  1.83254764136848E-13
(PID.TID 0000.0001)  cg2d: iter=   130 ; resid.=  1.16959760698437E-13
(PID.TID 0000.0001)  cg2d: iter=   131 ; resid.=  7.69498127637104E-14
DEBUG_STATS_RL:    cg2d_x (SOLVE_FOR_PRESSURE)  min= -1.78367926000857E+01
DEBUG_STATS_RL:    cg2d_x (SOLVE_FOR_PRESSURE)  max=  8.36022692800787E+00
DEBUG_STATS_RL:    cg2d_x (SOLVE_FOR_PRESSURE) mean= -1.80993899351866E+00
DEBUG_STATS_RL:    cg2d_x (SOLVE_FOR_PRESSURE) S.D.=  7.13513766758670E+00
(PID.TID 0000.0001)      cg2d_init_res =   2.61115886996535E-01
(PID.TID 0000.0001)      cg2d_iters(min,last) =      -1     131
(PID.TID 0000.0001)      cg2d_last_res =   7.69498127637104E-14
(PID.TID 0000.0001) // =======================================================
(PID.TID 0000.0001) // Begin MONITOR dynamic field statistics
(PID.TID 0000.0001) // =======================================================
(PID.TID 0000.0001) %MON time_tsnumber                =                    66
(PID.TID 0000.0001) %MON time_secondsf                =   5.7024000000000E+06
(PID.TID 0000.0001) %MON dynstat_eta_max              =   8.5221477349726E-01
(PID.TID 0000.0001) %MON dynstat_eta_min              =  -1.8182255453706E+00
(PID.TID 0000.0001) %MON dynstat_eta_mean             =  -4.8183103528139E-03
(PID.TID 0000.0001) %MON dynstat_eta_sd               =   6.2866195635587E-01
(PID.TID 0000.0001) %MON dynstat_eta_del2             =   2.3944249145072E-03
(PID.TID 0000.0001) %MON dynstat_uvel_max             =   1.3557300693248E-01
(PID.TID 0000.0001) %MON dynstat_uvel_min             =  -1.2521625224864E-01
(PID.TID 0000.0001) %MON dynstat_uvel_mean            =   2.3095384010951E-03
(PID.TID 0000.0001) %MON dynstat_uvel_sd              =   1.3906162062216E-02
(PID.TID 0000.0001) %MON dynstat_uvel_del2            =   8.6210677585574E-05
(PID.TID 0000.0001) %MON dynstat_vvel_max             =   1.4698627971424E-01
(PID.TID 0000.0001) %MON dynstat_vvel_min             =  -9.6326968814324E-02
(PID.TID 0000.0001) %MON dynstat_vvel_mean            =   2.3740408043817E-05
(PID.TID 0000.0001) %MON dynstat_vvel_sd              =   8.5769310192613E-03
(PID.TID 0000.0001) %MON dynstat_vvel_del2            =   7.3639379560428E-05
(PID.TID 0000.0001) %MON dynstat_wvel_max             =   8.6771016206804E-05
(PID.TID 0000.0001) %MON dynstat_wvel_min             =  -7.9397295584839E-05
(PID.TID 0000.0001) %MON dynstat_wvel_mean            =   1.0584243064487E-22
(PID.TID 0000.0001) %MON dynstat_wvel_sd              =   1.0995357186285E-05
(PID.TID 0000.0001) %MON dynstat_wvel_del2            =   1.1154047175511E-07
(PID.TID 0000.0001) %MON dynstat_theta_max            =   3.0691793921870E+01
(PID.TID 0000.0001) %MON dynstat_theta_min            =  -1.9581805292040E+00
(PID.TID 0000.0001) %MON dynstat_theta_mean           =   3.6335524442990E+00
(PID.TID 0000.0001) %MON dynstat_theta_sd             =   4.4249066042361E+00
(PID.TID 0000.0001) %MON dynstat_theta_del2           =   4.8930403247529E-03
(PID.TID 0000.0001) %MON dynstat_salt_max             =   3.7477437370213E+01
(PID.TID 0000.0001) %MON dynstat_salt_min             =   2.9895270184883E+01
(PID.TID 0000.0001) %MON dynstat_salt_mean            =   3.4727992245465E+01
(PID.TID 0000.0001) %MON dynstat_salt_sd              =   2.9647589680055E-01
(PID.TID 0000.0001) %MON dynstat_salt_del2            =   9.8951355241884E-04
(PID.TID 0000.0001) %MON dynstat_sst_max              =   3.0691793921870E+01
(PID.TID 0000.0001) %MON dynstat_sst_min              =  -1.9581805292040E+00
(PID.TID 0000.0001) %MON dynstat_sst_mean             =   1.9027995514335E+01
(PID.TID 0000.0001) %MON dynstat_sst_sd               =   9.0902405124801E+00
(PID.TID 0000.0001) %MON dynstat_sst_del2             =   2.8186238956744E-02
(PID.TID 0000.0001) %MON dynstat_sss_max              =   3.7460643647666E+01
(PID.TID 0000.0001) %MON dynstat_sss_min              =   2.9895270184883E+01
(PID.TID 0000.0001) %MON dynstat_sss_mean             =   3.4848615259256E+01
(PID.TID 0000.0001) %MON dynstat_sss_sd               =   9.8247922331556E-01
(PID.TID 0000.0001) %MON dynstat_sss_del2             =   8.0506353351502E-03
(PID.TID 0000.0001) %MON forcing_qnet_max             =   3.0248920694987E+02
(PID.TID 0000.0001) %MON forcing_qnet_min             =  -1.6684838358561E+02
(PID.TID 0000.0001) %MON forcing_qnet_mean            =  -9.4984609864109E+00
(PID.TID 0000.0001) %MON forcing_qnet_sd              =   5.4405557382944E+01
(PID.TID 0000.0001) %MON forcing_qnet_del2            =   8.6680590177986E-01
(PID.TID 0000.0001) %MON forcing_qsw_max              =   0.0000000000000E+00
(PID.TID 0000.0001) %MON forcing_qsw_min              =   0.0000000000000E+00
(PID.TID 0000.0001) %MON forcing_qsw_mean             =   0.0000000000000E+00
(PID.TID 0000.0001) %MON forcing_qsw_sd               =   0.0000000000000E+00
(PID.TID 0000.0001) %MON forcing_qsw_del2             =   0.0000000000000E+00
(PID.TID 0000.0001) %MON forcing_empmr_max            =   6.9166385211853E-05
(PID.TID 0000.0001) %MON forcing_empmr_min            =  -7.9272621652156E-05
(PID.TID 0000.0001) %MON forcing_empmr_mean           =   6.8161036242225E-07
(PID.TID 0000.0001) %MON forcing_empmr_sd             =   2.6616217830995E-05
(PID.TID 0000.0001) %MON forcing_empmr_del2           =   3.5673956520536E-07
(PID.TID 0000.0001) %MON forcing_fu_max               =   3.3813723921776E-01
(PID.TID 0000.0001) %MON forcing_fu_min               =  -3.2483523090680E-01
(PID.TID 0000.0001) %MON forcing_fu_mean              =   1.9514733405804E-02
(PID.TID 0000.0001) %MON forcing_fu_sd                =   9.7132739592026E-02
(PID.TID 0000.0001) %MON forcing_fu_del2              =   7.4286337191137E-04
(PID.TID 0000.0001) %MON forcing_fv_max               =   1.4849948386351E-01
(PID.TID 0000.0001) %MON forcing_fv_min               =  -1.7835372189681E-01
(PID.TID 0000.0001) %MON forcing_fv_mean              =  -7.4252919403498E-03
(PID.TID 0000.0001) %MON forcing_fv_sd                =   4.1714625157981E-02
(PID.TID 0000.0001) %MON forcing_fv_del2              =   4.6870613924266E-04
(PID.TID 0000.0001) %MON trAdv_CFL_u_max              =   4.3666003716495E-02
(PID.TID 0000.0001) %MON trAdv_CFL_v_max              =   2.8074054589644E-02
(PID.TID 0000.0001) %MON trAdv_CFL_w_max              =   2.7609487062709E-02
(PID.TID 0000.0001) %MON advcfl_uvel_max              =   4.4811707702141E-02
(PID.TID 0000.0001) %MON advcfl_vvel_max              =   2.8557076771968E-02
(PID.TID 0000.0001) %MON advcfl_wvel_max              =   2.7752898413035E-02
(PID.TID 0000.0001) %MON advcfl_W_hf_max              =   3.3303478095642E-02
(PID.TID 0000.0001) %MON pe_b_mean                    =   5.0575603124770E-04
(PID.TID 0000.0001) %MON ke_max                       =   1.2439818269482E-02
(PID.TID 0000.0001) %MON ke_mean                      =   1.2330561622251E-04
(PID.TID 0000.0001) %MON ke_vol                       =   1.3226782436723E+18
(PID.TID 0000.0001) %MON vort_r_min                   =  -3.1148423616716E-07
(PID.TID 0000.0001) %MON vort_r_max                   =   4.0459867202141E-07
(PID.TID 0000.0001) %MON vort_a_mean                  =  -2.5274807085262E-05
(PID.TID 0000.0001) %MON vort_a_sd                    =   7.3604649166477E-05
(PID.TID 0000.0001) %MON vort_p_mean                  =  -3.1845655406121E-05
(PID.TID 0000.0001) %MON vort_p_sd                    =   1.3162471509067E-04
(PID.TID 0000.0001) %MON surfExpan_theta_mean         =   3.4428426911482E-07
(PID.TID 0000.0001) %MON surfExpan_salt_mean          =  -7.1972657914117E-08
(PID.TID 0000.0001) // =======================================================
(PID.TID 0000.0001) // End MONITOR dynamic field statistics
(PID.TID 0000.0001) // =======================================================
 EXTERNAL_FIELDS_LOAD,        66 : iP,iLd,i0,i1=    2    3    2    3 ; Wght=  0.3000000000  0.7000000000
 EXTERNAL_FIELDS_LOAD: (fu0,1),fu,fv= -1.4435E-02 -2.7199E-02 -2.3370E-02 -5.6953E-03
 EXTERNAL_FIELDS_LOAD: SST,SSS,Q,E-P= -2.8829E-01  3.4532E+01  2.2292E+02  8.8697E-06
DEBUG_STATS_RL:          Uvel (THERMODYNAMICS)  min= -1.25216252248642E-01
DEBUG_STATS_RL:          Uvel (THERMODYNAMICS)  max=  1.35573006932475E-01
DEBUG_STATS_RL:          Uvel (THERMODYNAMICS) mean=  5.81166963094687E-03
DEBUG_STATS_RL:          Uvel (THERMODYNAMICS) S.D.=  2.15810441089640E-02
DEBUG_STATS_RL:          Vvel (THERMODYNAMICS)  min= -9.63269688143235E-02
DEBUG_STATS_RL:          Vvel (THERMODYNAMICS)  max=  1.46986279714243E-01
DEBUG_STATS_RL:          Vvel (THERMODYNAMICS) mean=  4.54012068756717E-04
DEBUG_STATS_RL:          Vvel (THERMODYNAMICS) S.D.=  1.36970793027126E-02
DEBUG_STATS_RL:          Wvel (THERMODYNAMICS)  min= -7.93972955848387E-05
DEBUG_STATS_RL:          Wvel (THERMODYNAMICS)  max=  8.67710162068041E-05
DEBUG_STATS_RL:          Wvel (THERMODYNAMICS) mean= -1.45618087118251E-07
DEBUG_STATS_RL:          Wvel (THERMODYNAMICS) S.D.=  9.67692077337038E-06
DEBUG_STATS_RL:         Theta (THERMODYNAMICS)  min= -1.95664203228147E+00
DEBUG_STATS_RL:         Theta (THERMODYNAMICS)  max=  3.07151385583279E+01
DEBUG_STATS_RL:         Theta (THERMODYNAMICS) mean=  3.23037419997868E+00
DEBUG_STATS_RL:         Theta (THERMODYNAMICS) S.D.=  5.88045969891422E+00
DEBUG_STATS_RL:          Salt (THERMODYNAMICS)  min=  9.99999999999997E-03
DEBUG_STATS_RL:          Salt (THERMODYNAMICS)  max=  3.74773497223043E+01
DEBUG_STATS_RL:          Salt (THERMODYNAMICS) mean=  1.88547415683654E+01
DEBUG_STATS_RL:          Salt (THERMODYNAMICS) S.D.=  1.73002826547463E+01
DEBUG_STATS_RL:         GtNm1 (THERMODYNAMICS)  min= -5.17544605555145E-06
DEBUG_STATS_RL:         GtNm1 (THERMODYNAMICS)  max=  2.74760054792837E-06
DEBUG_STATS_RL:         GtNm1 (THERMODYNAMICS) mean=  3.45978241233083E-09
DEBUG_STATS_RL:         GtNm1 (THERMODYNAMICS) S.D.=  1.62249028134394E-07
DEBUG_STATS_RL:         GsNm1 (THERMODYNAMICS)  min= -5.79026368887782E-07
DEBUG_STATS_RL:         GsNm1 (THERMODYNAMICS)  max=  4.00989964228044E-07
DEBUG_STATS_RL:         GsNm1 (THERMODYNAMICS) mean= -3.02933831482358E-10
DEBUG_STATS_RL:         GsNm1 (THERMODYNAMICS) S.D.=  1.57005102790317E-08
DEBUG_STATS_RL:                EtaN (DYNAMICS)  min= -1.81822554537060E+00
DEBUG_STATS_RL:                EtaN (DYNAMICS)  max=  8.52214773497259E-01
DEBUG_STATS_RL:                EtaN (DYNAMICS) mean= -1.84499387718518E-01
DEBUG_STATS_RL:                EtaN (DYNAMICS) S.D.=  7.27333095574588E-01
DEBUG_STATS_RL:                Uvel (DYNAMICS)  min= -1.25216252248642E-01
DEBUG_STATS_RL:                Uvel (DYNAMICS)  max=  1.35573006932475E-01
DEBUG_STATS_RL:                Uvel (DYNAMICS) mean=  5.81166963094687E-03
DEBUG_STATS_RL:                Uvel (DYNAMICS) S.D.=  2.15810441089640E-02
DEBUG_STATS_RL:                Vvel (DYNAMICS)  min= -9.63269688143235E-02
DEBUG_STATS_RL:                Vvel (DYNAMICS)  max=  1.46986279714243E-01
DEBUG_STATS_RL:                Vvel (DYNAMICS) mean=  4.54012068756717E-04
DEBUG_STATS_RL:                Vvel (DYNAMICS) S.D.=  1.36970793027126E-02
DEBUG_STATS_RL:                Wvel (DYNAMICS)  min= -7.93972955848387E-05
DEBUG_STATS_RL:                Wvel (DYNAMICS)  max=  8.67710162068041E-05
DEBUG_STATS_RL:                Wvel (DYNAMICS) mean= -1.45618087118251E-07
DEBUG_STATS_RL:                Wvel (DYNAMICS) S.D.=  9.67692077337038E-06
DEBUG_STATS_RL:               Theta (DYNAMICS)  min= -1.95664203228147E+00
DEBUG_STATS_RL:               Theta (DYNAMICS)  max=  3.07151385583279E+01
DEBUG_STATS_RL:               Theta (DYNAMICS) mean=  3.23037419997868E+00
DEBUG_STATS_RL:               Theta (DYNAMICS) S.D.=  5.88045969891422E+00
DEBUG_STATS_RL:                Salt (DYNAMICS)  min=  9.99999999999997E-03
DEBUG_STATS_RL:                Salt (DYNAMICS)  max=  3.74773497223043E+01
DEBUG_STATS_RL:                Salt (DYNAMICS) mean=  1.88547415683654E+01
DEBUG_STATS_RL:                Salt (DYNAMICS) S.D.=  1.73002826547463E+01
DEBUG_STATS_RL:                  Gu (DYNAMICS)  min= -1.23840315228477E-01
DEBUG_STATS_RL:                  Gu (DYNAMICS)  max=  1.38690563294559E-01
DEBUG_STATS_RL:                  Gu (DYNAMICS) mean=  5.78450957450682E-03
DEBUG_STATS_RL:                  Gu (DYNAMICS) S.D.=  2.21456586211746E-02
DEBUG_STATS_RL:                  Gv (DYNAMICS)  min= -1.05468566639153E-01
DEBUG_STATS_RL:                  Gv (DYNAMICS)  max=  1.47732119658783E-01
DEBUG_STATS_RL:                  Gv (DYNAMICS) mean=  3.12790903331925E-03
DEBUG_STATS_RL:                  Gv (DYNAMICS) S.D.=  1.47895024158492E-02
DEBUG_STATS_RL:               GuNm1 (DYNAMICS)  min= -1.00320784766799E-05
DEBUG_STATS_RL:               GuNm1 (DYNAMICS)  max=  9.32838940245858E-06
DEBUG_STATS_RL:               GuNm1 (DYNAMICS) mean=  5.83201062961460E-09
DEBUG_STATS_RL:               GuNm1 (DYNAMICS) S.D.=  1.20095579315775E-06
DEBUG_STATS_RL:               GvNm1 (DYNAMICS)  min= -1.01709464675863E-05
DEBUG_STATS_RL:               GvNm1 (DYNAMICS)  max=  1.56831483167624E-05
DEBUG_STATS_RL:               GvNm1 (DYNAMICS) mean=  7.38974476951135E-07
DEBUG_STATS_RL:               GvNm1 (DYNAMICS) S.D.=  2.64152343297705E-06
DEBUG_STATS_RL:               GtNm1 (DYNAMICS)  min= -5.17544605555145E-06
DEBUG_STATS_RL:               GtNm1 (DYNAMICS)  max=  2.74760054792837E-06
DEBUG_STATS_RL:               GtNm1 (DYNAMICS) mean=  3.45978241233083E-09
DEBUG_STATS_RL:               GtNm1 (DYNAMICS) S.D.=  1.62249028134394E-07
DEBUG_STATS_RL:               GsNm1 (DYNAMICS)  min= -5.79026368887782E-07
DEBUG_STATS_RL:               GsNm1 (DYNAMICS)  max=  4.00989964228044E-07
DEBUG_STATS_RL:               GsNm1 (DYNAMICS) mean= -3.02933831482358E-10
DEBUG_STATS_RL:               GsNm1 (DYNAMICS) S.D.=  1.57005102790317E-08
DEBUG_STATS_RL:    cg2d_b (SOLVE_FOR_PRESSURE)  min= -1.92505269320103E+04
DEBUG_STATS_RL:    cg2d_b (SOLVE_FOR_PRESSURE)  max=  2.49262447603687E+04
DEBUG_STATS_RL:    cg2d_b (SOLVE_FOR_PRESSURE) mean=  4.67148684335606E+00
DEBUG_STATS_RL:    cg2d_b (SOLVE_FOR_PRESSURE) S.D.=  3.92477037127437E+03
 cg2d: Sum(rhs),rhsMax =   4.33859658618210E-01  1.63722249402963E+00
(PID.TID 0000.0001)  cg2d: iter=     1 ; resid.=  9.83449420017349E-02
(PID.TID 0000.0001)  cg2d: iter=     2 ; resid.=  9.16722424765796E-02
(PID.TID 0000.0001)  cg2d: iter=     3 ; resid.=  8.96908803411572E-02
(PID.TID 0000.0001)  cg2d: iter=     4 ; resid.=  8.08088262154141E-02
(PID.TID 0000.0001)  cg2d: iter=     5 ; resid.=  7.55532415428273E-02
(PID.TID 0000.0001)  cg2d: iter=     6 ; resid.=  6.77743295319943E-02
(PID.TID 0000.0001)  cg2d: iter=     7 ; resid.=  5.54178859758666E-02
(PID.TID 0000.0001)  cg2d: iter=     8 ; resid.=  4.30637810801065E-02
(PID.TID 0000.0001)  cg2d: iter=     9 ; resid.=  3.33220535266809E-02
(PID.TID 0000.0001)  cg2d: iter=    10 ; resid.=  2.46574417401561E-02
(PID.TID 0000.0001)  cg2d: iter=    11 ; resid.=  2.12447921321757E-02
(PID.TID 0000.0001)  cg2d: iter=    12 ; resid.=  1.85527438938454E-02
(PID.TID 0000.0001)  cg2d: iter=    13 ; resid.=  1.54220381284056E-02
(PID.TID 0000.0001)  cg2d: iter=    14 ; resid.=  1.28558182151156E-02
(PID.TID 0000.0001)  cg2d: iter=    15 ; resid.=  1.04633807006306E-02
(PID.TID 0000.0001)  cg2d: iter=    16 ; resid.=  8.65880824767692E-03
(PID.TID 0000.0001)  cg2d: iter=    17 ; resid.=  8.01691127866481E-03
(PID.TID 0000.0001)  cg2d: iter=    18 ; resid.=  6.57598753853554E-03
(PID.TID 0000.0001)  cg2d: iter=    19 ; resid.=  5.14917416318845E-03
(PID.TID 0000.0001)  cg2d: iter=    20 ; resid.=  4.15123739437846E-03
(PID.TID 0000.0001)  cg2d: iter=    21 ; resid.=  3.75711434398772E-03
(PID.TID 0000.0001)  cg2d: iter=    22 ; resid.=  3.37378330958102E-03
(PID.TID 0000.0001)  cg2d: iter=    23 ; resid.=  2.77947452548812E-03
(PID.TID 0000.0001)  cg2d: iter=    24 ; resid.=  2.22119754188723E-03
(PID.TID 0000.0001)  cg2d: iter=    25 ; resid.=  1.78431834404146E-03
(PID.TID 0000.0001)  cg2d: iter=    26 ; resid.=  1.38029810972161E-03
(PID.TID 0000.0001)  cg2d: iter=    27 ; resid.=  1.13274614624262E-03
(PID.TID 0000.0001)  cg2d: iter=    28 ; resid.=  9.05046885389725E-04
(PID.TID 0000.0001)  cg2d: iter=    29 ; resid.=  7.49449078858686E-04
(PID.TID 0000.0001)  cg2d: iter=    30 ; resid.=  5.87168196310491E-04
(PID.TID 0000.0001)  cg2d: iter=    31 ; resid.=  4.87390647045544E-04
(PID.TID 0000.0001)  cg2d: iter=    32 ; resid.=  3.52526876267073E-04
(PID.TID 0000.0001)  cg2d: iter=    33 ; resid.=  2.68692801536373E-04
(PID.TID 0000.0001)  cg2d: iter=    34 ; resid.=  2.38588112543802E-04
(PID.TID 0000.0001)  cg2d: iter=    35 ; resid.=  2.12367078945366E-04
(PID.TID 0000.0001)  cg2d: iter=    36 ; resid.=  1.82331714601071E-04
(PID.TID 0000.0001)  cg2d: iter=    37 ; resid.=  1.43241480229925E-04
(PID.TID 0000.0001)  cg2d: iter=    38 ; resid.=  1.24590184316327E-04
(PID.TID 0000.0001)  cg2d: iter=    39 ; resid.=  1.07553583463999E-04
(PID.TID 0000.0001)  cg2d: iter=    40 ; resid.=  8.67277233768524E-05
(PID.TID 0000.0001)  cg2d: iter=    41 ; resid.=  6.86905795447194E-05
(PID.TID 0000.0001)  cg2d: iter=    42 ; resid.=  5.97635883571411E-05
(PID.TID 0000.0001)  cg2d: iter=    43 ; resid.=  4.88634220477047E-05
(PID.TID 0000.0001)  cg2d: iter=    44 ; resid.=  3.96710411656408E-05
(PID.TID 0000.0001)  cg2d: iter=    45 ; resid.=  3.64559723784643E-05
(PID.TID 0000.0001)  cg2d: iter=    46 ; resid.=  2.89580295531887E-05
(PID.TID 0000.0001)  cg2d: iter=    47 ; resid.=  2.18084247977191E-05
(PID.TID 0000.0001)  cg2d: iter=    48 ; resid.=  1.75419400044527E-05
(PID.TID 0000.0001)  cg2d: iter=    49 ; resid.=  1.51006722537812E-05
(PID.TID 0000.0001)  cg2d: iter=    50 ; resid.=  1.35006770951249E-05
(PID.TID 0000.0001)  cg2d: iter=    51 ; resid.=  1.19706738053516E-05
(PID.TID 0000.0001)  cg2d: iter=    52 ; resid.=  1.05586108695789E-05
(PID.TID 0000.0001)  cg2d: iter=    53 ; resid.=  9.52331646758751E-06
(PID.TID 0000.0001)  cg2d: iter=    54 ; resid.=  8.32315815366888E-06
(PID.TID 0000.0001)  cg2d: iter=    55 ; resid.=  7.27429871674756E-06
(PID.TID 0000.0001)  cg2d: iter=    56 ; resid.=  5.85434729656785E-06
(PID.TID 0000.0001)  cg2d: iter=    57 ; resid.=  4.62750072622297E-06
(PID.TID 0000.0001)  cg2d: iter=    58 ; resid.=  3.64258537243360E-06
(PID.TID 0000.0001)  cg2d: iter=    59 ; resid.=  2.69684402375321E-06
(PID.TID 0000.0001)  cg2d: iter=    60 ; resid.=  2.14186250104503E-06
(PID.TID 0000.0001)  cg2d: iter=    61 ; resid.=  1.89485116387258E-06
(PID.TID 0000.0001)  cg2d: iter=    62 ; resid.=  1.66848481226517E-06
(PID.TID 0000.0001)  cg2d: iter=    63 ; resid.=  1.44273440498863E-06
(PID.TID 0000.0001)  cg2d: iter=    64 ; resid.=  1.17306429512037E-06
(PID.TID 0000.0001)  cg2d: iter=    65 ; resid.=  9.33753140018776E-07
(PID.TID 0000.0001)  cg2d: iter=    66 ; resid.=  7.27369637723960E-07
(PID.TID 0000.0001)  cg2d: iter=    67 ; resid.=  5.89190556478676E-07
(PID.TID 0000.0001)  cg2d: iter=    68 ; resid.=  5.93988781100417E-07
(PID.TID 0000.0001)  cg2d: iter=    69 ; resid.=  5.05684380007151E-07
(PID.TID 0000.0001)  cg2d: iter=    70 ; resid.=  4.12555924314609E-07
(PID.TID 0000.0001)  cg2d: iter=    71 ; resid.=  3.41733676421569E-07
(PID.TID 0000.0001)  cg2d: iter=    72 ; resid.=  2.85532735831603E-07
(PID.TID 0000.0001)  cg2d: iter=    73 ; resid.=  2.51013920730833E-07
(PID.TID 0000.0001)  cg2d: iter=    74 ; resid.=  2.17305225904660E-07
(PID.TID 0000.0001)  cg2d: iter=    75 ; resid.=  1.81419305952992E-07
(PID.TID 0000.0001)  cg2d: iter=    76 ; resid.=  1.46329897110042E-07
(PID.TID 0000.0001)  cg2d: iter=    77 ; resid.=  1.18214073007621E-07
(PID.TID 0000.0001)  cg2d: iter=    78 ; resid.=  9.30547641248830E-08
(PID.TID 0000.0001)  cg2d: iter=    79 ; resid.=  7.15697927806553E-08
(PID.TID 0000.0001)  cg2d: iter=    80 ; resid.=  5.20490001825760E-08
(PID.TID 0000.0001)  cg2d: iter=    81 ; resid.=  3.76793926619761E-08
(PID.TID 0000.0001)  cg2d: iter=    82 ; resid.=  2.69762441953625E-08
(PID.TID 0000.0001)  cg2d: iter=    83 ; resid.=  1.96016521045267E-08
(PID.TID 0000.0001)  cg2d: iter=    84 ; resid.=  1.57856071141526E-08
(PID.TID 0000.0001)  cg2d: iter=    85 ; resid.=  1.16041264318577E-08
(PID.TID 0000.0001)  cg2d: iter=    86 ; resid.=  8.82968364478198E-09
(PID.TID 0000.0001)  cg2d: iter=    87 ; resid.=  6.68671527968410E-09
(PID.TID 0000.0001)  cg2d: iter=    88 ; resid.=  4.63153828217368E-09
(PID.TID 0000.0001)  cg2d: iter=    89 ; resid.=  3.64893593164012E-09
(PID.TID 0000.0001)  cg2d: iter=    90 ; resid.=  3.02090787677352E-09
(PID.TID 0000.0001)  cg2d: iter=    91 ; resid.=  2.43820837982323E-09
(PID.TID 0000.0001)  cg2d: iter=    92 ; resid.=  2.01693183568590E-09
(PID.TID 0000.0001)  cg2d: iter=    93 ; resid.=  1.74063658168683E-09
(PID.TID 0000.0001)  cg2d: iter=    94 ; resid.=  1.45942526440676E-09
(PID.TID 0000.0001)  cg2d: iter=    95 ; resid.=  1.23384142854967E-09
(PID.TID 0000.0001)  cg2d: iter=    96 ; resid.=  1.00883806092725E-09
(PID.TID 0000.0001)  cg2d: iter=    97 ; resid.=  7.58008413704300E-10
(PID.TID 0000.0001)  cg2d: iter=    98 ; resid.=  5.97605705160025E-10
(PID.TID 0000.0001)  cg2d: iter=    99 ; resid.=  4.96530933661473E-10
(PID.TID 0000.0001)  cg2d: iter=   100 ; resid.=  4.36457387859221E-10
(PID.TID 0000.0001)  cg2d: iter=   101 ; resid.=  3.54758669325524E-10
(PID.TID 0000.0001)  cg2d: iter=   102 ; resid.=  2.78052482259834E-10
(PID.TID 0000.0001)  cg2d: iter=   103 ; resid.=  2.18492237686251E-10
(PID.TID 0000.0001)  cg2d: iter=   104 ; resid.=  1.86191026273042E-10
(PID.TID 0000.0001)  cg2d: iter=   105 ; resid.=  1.49922107008007E-10
(PID.TID 0000.0001)  cg2d: iter=   106 ; resid.=  1.17123481813136E-10
(PID.TID 0000.0001)  cg2d: iter=   107 ; resid.=  8.84799850362464E-11
(PID.TID 0000.0001)  cg2d: iter=   108 ; resid.=  7.04435223220965E-11
(PID.TID 0000.0001)  cg2d: iter=   109 ; resid.=  5.32838637961087E-11
(PID.TID 0000.0001)  cg2d: iter=   110 ; resid.=  3.93021536408707E-11
(PID.TID 0000.0001)  cg2d: iter=   111 ; resid.=  3.08922210388515E-11
(PID.TID 0000.0001)  cg2d: iter=   112 ; resid.=  2.32107809393624E-11
(PID.TID 0000.0001)  cg2d: iter=   113 ; resid.=  1.68072146922194E-11
(PID.TID 0000.0001)  cg2d: iter=   114 ; resid.=  1.19393451371897E-11
(PID.TID 0000.0001)  cg2d: iter=   115 ; resid.=  8.43333680946850E-12
(PID.TID 0000.0001)  cg2d: iter=   116 ; resid.=  6.26050576256613E-12
(PID.TID 0000.0001)  cg2d: iter=   117 ; resid.=  5.08010270424927E-12
(PID.TID 0000.0001)  cg2d: iter=   118 ; resid.=  3.96480182558225E-12
(PID.TID 0000.0001)  cg2d: iter=   119 ; resid.=  3.13704860844562E-12
(PID.TID 0000.0001)  cg2d: iter=   120 ; resid.=  2.59496474489881E-12
(PID.TID 0000.0001)  cg2d: iter=   121 ; resid.=  1.99561217543793E-12
(PID.TID 0000.0001)  cg2d: iter=   122 ; resid.=  1.54262572983429E-12
(PID.TID 0000.0001)  cg2d: iter=   123 ; resid.=  1.28564553558958E-12
(PID.TID 0000.0001)  cg2d: iter=   124 ; resid.=  1.05034644945721E-12
(PID.TID 0000.0001)  cg2d: iter=   125 ; resid.=  8.03106172413534E-13
(PID.TID 0000.0001)  cg2d: iter=   126 ; resid.=  5.85973696315761E-13
(PID.TID 0000.0001)  cg2d: iter=   127 ; resid.=  4.12987886842357E-13
(PID.TID 0000.0001)  cg2d: iter=   128 ; resid.=  2.79461575321300E-13
(PID.TID 0000.0001)  cg2d: iter=   129 ; resid.=  1.81629992522073E-13
(PID.TID 0000.0001)  cg2d: iter=   130 ; resid.=  1.19763758244607E-13
(PID.TID 0000.0001)  cg2d: iter=   131 ; resid.=  8.18053257480797E-14
DEBUG_STATS_RL:    cg2d_x (SOLVE_FOR_PRESSURE)  min= -1.80444787126488E+01
DEBUG_STATS_RL:    cg2d_x (SOLVE_FOR_PRESSURE)  max=  8.63685201442961E+00
DEBUG_STATS_RL:    cg2d_x (SOLVE_FOR_PRESSURE) mean= -1.82503515618400E+00
DEBUG_STATS_RL:    cg2d_x (SOLVE_FOR_PRESSURE) S.D.=  7.21346646233032E+00
(PID.TID 0000.0001)      cg2d_init_res =   2.62466748737990E-01
(PID.TID 0000.0001)      cg2d_iters(min,last) =      -1     131
(PID.TID 0000.0001)      cg2d_last_res =   8.18053257480797E-14
(PID.TID 0000.0001) // =======================================================
(PID.TID 0000.0001) // Begin MONITOR dynamic field statistics
(PID.TID 0000.0001) // =======================================================
(PID.TID 0000.0001) %MON time_tsnumber                =                    67
(PID.TID 0000.0001) %MON time_secondsf                =   5.7888000000000E+06
(PID.TID 0000.0001) %MON dynstat_eta_max              =   8.8041304938117E-01
(PID.TID 0000.0001) %MON dynstat_eta_min              =  -1.8393964029210E+00
(PID.TID 0000.0001) %MON dynstat_eta_mean             =  -4.8741172757954E-03
(PID.TID 0000.0001) %MON dynstat_eta_sd               =   6.3728076576819E-01
(PID.TID 0000.0001) %MON dynstat_eta_del2             =   2.3977844383279E-03
(PID.TID 0000.0001) %MON dynstat_uvel_max             =   1.3997150950747E-01
(PID.TID 0000.0001) %MON dynstat_uvel_min             =  -1.2432124089591E-01
(PID.TID 0000.0001) %MON dynstat_uvel_mean            =   2.3257809150197E-03
(PID.TID 0000.0001) %MON dynstat_uvel_sd              =   1.4006443764776E-02
(PID.TID 0000.0001) %MON dynstat_uvel_del2            =   8.6730897174360E-05
(PID.TID 0000.0001) %MON dynstat_vvel_max             =   1.4851534598999E-01
(PID.TID 0000.0001) %MON dynstat_vvel_min             =  -9.4938334496090E-02
(PID.TID 0000.0001) %MON dynstat_vvel_mean            =   7.4890034934303E-06
(PID.TID 0000.0001) %MON dynstat_vvel_sd              =   8.5352270493917E-03
(PID.TID 0000.0001) %MON dynstat_vvel_del2            =   7.3735794275061E-05
(PID.TID 0000.0001) %MON dynstat_wvel_max             =   8.0036953758871E-05
(PID.TID 0000.0001) %MON dynstat_wvel_min             =  -8.1044634804352E-05
(PID.TID 0000.0001) %MON dynstat_wvel_mean            =   1.1569957325396E-22
(PID.TID 0000.0001) %MON dynstat_wvel_sd              =   1.0903613607670E-05
(PID.TID 0000.0001) %MON dynstat_wvel_del2            =   1.1016316405281E-07
(PID.TID 0000.0001) %MON dynstat_theta_max            =   3.0715138558328E+01
(PID.TID 0000.0001) %MON dynstat_theta_min            =  -1.9566420322815E+00
(PID.TID 0000.0001) %MON dynstat_theta_mean           =   3.6335961211780E+00
(PID.TID 0000.0001) %MON dynstat_theta_sd             =   4.4250970572889E+00
(PID.TID 0000.0001) %MON dynstat_theta_del2           =   4.8891385761690E-03
(PID.TID 0000.0001) %MON dynstat_salt_max             =   3.7477349722304E+01
(PID.TID 0000.0001) %MON dynstat_salt_min             =   2.9897079335025E+01
(PID.TID 0000.0001) %MON dynstat_salt_mean            =   3.4727994746722E+01
(PID.TID 0000.0001) %MON dynstat_salt_sd              =   2.9648585595078E-01
(PID.TID 0000.0001) %MON dynstat_salt_del2            =   9.8928028831049E-04
(PID.TID 0000.0001) %MON dynstat_sst_max              =   3.0715138558328E+01
(PID.TID 0000.0001) %MON dynstat_sst_min              =  -1.9566420322815E+00
(PID.TID 0000.0001) %MON dynstat_sst_mean             =   1.9032570189941E+01
(PID.TID 0000.0001) %MON dynstat_sst_sd               =   9.0950429319807E+00
(PID.TID 0000.0001) %MON dynstat_sst_del2             =   2.8215545108422E-02
(PID.TID 0000.0001) %MON dynstat_sss_max              =   3.7461377335178E+01
(PID.TID 0000.0001) %MON dynstat_sss_min              =   2.9897079335025E+01
(PID.TID 0000.0001) %MON dynstat_sss_mean             =   3.4848420605822E+01
(PID.TID 0000.0001) %MON dynstat_sss_sd               =   9.8278141827072E-01
(PID.TID 0000.0001) %MON dynstat_sss_del2             =   8.0575223765997E-03
(PID.TID 0000.0001) %MON forcing_qnet_max             =   2.9969105529785E+02
(PID.TID 0000.0001) %MON forcing_qnet_min             =  -1.6654910430908E+02
(PID.TID 0000.0001) %MON forcing_qnet_mean            =  -9.2751214867842E+00
(PID.TID 0000.0001) %MON forcing_qnet_sd              =   5.3417334292331E+01
(PID.TID 0000.0001) %MON forcing_qnet_del2            =   8.6450663547171E-01
(PID.TID 0000.0001) %MON forcing_qsw_max              =   0.0000000000000E+00
(PID.TID 0000.0001) %MON forcing_qsw_min              =   0.0000000000000E+00
(PID.TID 0000.0001) %MON forcing_qsw_mean             =   0.0000000000000E+00
(PID.TID 0000.0001) %MON forcing_qsw_sd               =   0.0000000000000E+00
(PID.TID 0000.0001) %MON forcing_qsw_del2             =   0.0000000000000E+00
(PID.TID 0000.0001) %MON forcing_empmr_max            =   6.9160628868303E-05
(PID.TID 0000.0001) %MON forcing_empmr_min            =  -7.9671801245240E-05
(PID.TID 0000.0001) %MON forcing_empmr_mean           =   6.6852043154790E-07
(PID.TID 0000.0001) %MON forcing_empmr_sd             =   2.6572386265845E-05
(PID.TID 0000.0001) %MON forcing_empmr_del2           =   3.5744101537631E-07
(PID.TID 0000.0001) %MON forcing_fu_max               =   3.4007865488529E-01
(PID.TID 0000.0001) %MON forcing_fu_min               =  -3.3120734989643E-01
(PID.TID 0000.0001) %MON forcing_fu_mean              =   1.9608932995262E-02
(PID.TID 0000.0001) %MON forcing_fu_sd                =   9.7551455334173E-02
(PID.TID 0000.0001) %MON forcing_fu_del2              =   7.5067710575234E-04
(PID.TID 0000.0001) %MON forcing_fv_max               =   1.4891323596239E-01
(PID.TID 0000.0001) %MON forcing_fv_min               =  -1.7985151261091E-01
(PID.TID 0000.0001) %MON forcing_fv_mean              =  -7.4357202903193E-03
(PID.TID 0000.0001) %MON forcing_fv_sd                =   4.1731256114148E-02
(PID.TID 0000.0001) %MON forcing_fv_del2              =   4.7036402229304E-04
(PID.TID 0000.0001) %MON trAdv_CFL_u_max              =   4.4820809280474E-02
(PID.TID 0000.0001) %MON trAdv_CFL_v_max              =   2.8440706127759E-02
(PID.TID 0000.0001) %MON trAdv_CFL_w_max              =   2.7627010513705E-02
(PID.TID 0000.0001) %MON advcfl_uvel_max              =   4.6265569471365E-02
(PID.TID 0000.0001) %MON advcfl_vvel_max              =   2.8854149826072E-02
(PID.TID 0000.0001) %MON advcfl_wvel_max              =   2.8224104782728E-02
(PID.TID 0000.0001) %MON advcfl_W_hf_max              =   3.3868925739273E-02
(PID.TID 0000.0001) %MON pe_b_mean                    =   5.1971855944732E-04
(PID.TID 0000.0001) %MON ke_max                       =   1.2716792746332E-02
(PID.TID 0000.0001) %MON ke_mean                      =   1.2429089114134E-04
(PID.TID 0000.0001) %MON ke_vol                       =   1.3226782436723E+18
(PID.TID 0000.0001) %MON vort_r_min                   =  -2.9818762858466E-07
(PID.TID 0000.0001) %MON vort_r_max                   =   4.0478015198575E-07
(PID.TID 0000.0001) %MON vort_a_mean                  =  -2.5274807019554E-05
(PID.TID 0000.0001) %MON vort_a_sd                    =   7.3604655355961E-05
(PID.TID 0000.0001) %MON vort_p_mean                  =  -3.1845655323331E-05
(PID.TID 0000.0001) %MON vort_p_sd                    =   1.3162475744807E-04
(PID.TID 0000.0001) %MON surfExpan_theta_mean         =   3.6979819077460E-07
(PID.TID 0000.0001) %MON surfExpan_salt_mean          =  -7.6803512528858E-08
(PID.TID 0000.0001) // =======================================================
(PID.TID 0000.0001) // End MONITOR dynamic field statistics
(PID.TID 0000.0001) // =======================================================
 EXTERNAL_FIELDS_LOAD,        67 : iP,iLd,i0,i1=    2    3    2    3 ; Wght=  0.2666666667  0.7333333333
 EXTERNAL_FIELDS_LOAD: (fu0,1),fu,fv= -1.4435E-02 -2.7199E-02 -2.3795E-02 -5.1267E-03
 EXTERNAL_FIELDS_LOAD: SST,SSS,Q,E-P= -2.7669E-01  3.4537E+01  2.2209E+02  8.8932E-06
DEBUG_STATS_RL:          Uvel (THERMODYNAMICS)  min= -1.24321240895906E-01
DEBUG_STATS_RL:          Uvel (THERMODYNAMICS)  max=  1.39971509507472E-01
DEBUG_STATS_RL:          Uvel (THERMODYNAMICS) mean=  5.86897738619439E-03
DEBUG_STATS_RL:          Uvel (THERMODYNAMICS) S.D.=  2.17776449633173E-02
DEBUG_STATS_RL:          Vvel (THERMODYNAMICS)  min= -9.49383344960900E-02
DEBUG_STATS_RL:          Vvel (THERMODYNAMICS)  max=  1.48515345989994E-01
DEBUG_STATS_RL:          Vvel (THERMODYNAMICS) mean=  4.35936593700311E-04
DEBUG_STATS_RL:          Vvel (THERMODYNAMICS) S.D.=  1.36402228320450E-02
DEBUG_STATS_RL:          Wvel (THERMODYNAMICS)  min= -8.10446348043523E-05
DEBUG_STATS_RL:          Wvel (THERMODYNAMICS)  max=  8.00369537588713E-05
DEBUG_STATS_RL:          Wvel (THERMODYNAMICS) mean= -1.41630438586691E-07
DEBUG_STATS_RL:          Wvel (THERMODYNAMICS) S.D.=  9.58899749381301E-06
DEBUG_STATS_RL:         Theta (THERMODYNAMICS)  min= -1.95509740419671E+00
DEBUG_STATS_RL:         Theta (THERMODYNAMICS)  max=  3.07385529785655E+01
DEBUG_STATS_RL:         Theta (THERMODYNAMICS) mean=  3.23052182179941E+00
DEBUG_STATS_RL:         Theta (THERMODYNAMICS) S.D.=  5.88093103621341E+00
DEBUG_STATS_RL:          Salt (THERMODYNAMICS)  min=  9.99999999999997E-03
DEBUG_STATS_RL:          Salt (THERMODYNAMICS)  max=  3.74772069433291E+01
DEBUG_STATS_RL:          Salt (THERMODYNAMICS) mean=  1.88547360443079E+01
DEBUG_STATS_RL:          Salt (THERMODYNAMICS) S.D.=  1.73002782790065E+01
DEBUG_STATS_RL:         GtNm1 (THERMODYNAMICS)  min= -4.93180191390323E-06
DEBUG_STATS_RL:         GtNm1 (THERMODYNAMICS)  max=  2.58505875987813E-06
DEBUG_STATS_RL:         GtNm1 (THERMODYNAMICS) mean=  3.42346350183282E-09
DEBUG_STATS_RL:         GtNm1 (THERMODYNAMICS) S.D.=  1.59467464977746E-07
DEBUG_STATS_RL:         GsNm1 (THERMODYNAMICS)  min= -5.78279232890094E-07
DEBUG_STATS_RL:         GsNm1 (THERMODYNAMICS)  max=  3.98036876590464E-07
DEBUG_STATS_RL:         GsNm1 (THERMODYNAMICS) mean= -2.57752532881507E-10
DEBUG_STATS_RL:         GsNm1 (THERMODYNAMICS) S.D.=  1.53493846281852E-08
DEBUG_STATS_RL:                EtaN (DYNAMICS)  min= -1.83939640292102E+00
DEBUG_STATS_RL:                EtaN (DYNAMICS)  max=  8.80413049381166E-01
DEBUG_STATS_RL:                EtaN (DYNAMICS) mean= -1.86038242220591E-01
DEBUG_STATS_RL:                EtaN (DYNAMICS) S.D.=  7.35317682194730E-01
DEBUG_STATS_RL:                Uvel (DYNAMICS)  min= -1.24321240895906E-01
DEBUG_STATS_RL:                Uvel (DYNAMICS)  max=  1.39971509507472E-01
DEBUG_STATS_RL:                Uvel (DYNAMICS) mean=  5.86897738619439E-03
DEBUG_STATS_RL:                Uvel (DYNAMICS) S.D.=  2.17776449633173E-02
DEBUG_STATS_RL:                Vvel (DYNAMICS)  min= -9.49383344960900E-02
DEBUG_STATS_RL:                Vvel (DYNAMICS)  max=  1.48515345989994E-01
DEBUG_STATS_RL:                Vvel (DYNAMICS) mean=  4.35936593700311E-04
DEBUG_STATS_RL:                Vvel (DYNAMICS) S.D.=  1.36402228320450E-02
DEBUG_STATS_RL:                Wvel (DYNAMICS)  min= -8.10446348043523E-05
DEBUG_STATS_RL:                Wvel (DYNAMICS)  max=  8.00369537588713E-05
DEBUG_STATS_RL:                Wvel (DYNAMICS) mean= -1.41630438586691E-07
DEBUG_STATS_RL:                Wvel (DYNAMICS) S.D.=  9.58899749381301E-06
DEBUG_STATS_RL:               Theta (DYNAMICS)  min= -1.95509740419671E+00
DEBUG_STATS_RL:               Theta (DYNAMICS)  max=  3.07385529785655E+01
DEBUG_STATS_RL:               Theta (DYNAMICS) mean=  3.23052182179941E+00
DEBUG_STATS_RL:               Theta (DYNAMICS) S.D.=  5.88093103621341E+00
DEBUG_STATS_RL:                Salt (DYNAMICS)  min=  9.99999999999997E-03
DEBUG_STATS_RL:                Salt (DYNAMICS)  max=  3.74772069433291E+01
DEBUG_STATS_RL:                Salt (DYNAMICS) mean=  1.88547360443079E+01
DEBUG_STATS_RL:                Salt (DYNAMICS) S.D.=  1.73002782790065E+01
DEBUG_STATS_RL:                  Gu (DYNAMICS)  min= -1.22789258729894E-01
DEBUG_STATS_RL:                  Gu (DYNAMICS)  max=  1.42207885998128E-01
DEBUG_STATS_RL:                  Gu (DYNAMICS) mean=  5.83997567823394E-03
DEBUG_STATS_RL:                  Gu (DYNAMICS) S.D.=  2.23456797737471E-02
DEBUG_STATS_RL:                  Gv (DYNAMICS)  min= -1.03120952493707E-01
DEBUG_STATS_RL:                  Gv (DYNAMICS)  max=  1.49174100448386E-01
DEBUG_STATS_RL:                  Gv (DYNAMICS) mean=  3.13748454176913E-03
DEBUG_STATS_RL:                  Gv (DYNAMICS) S.D.=  1.47362137416449E-02
DEBUG_STATS_RL:               GuNm1 (DYNAMICS)  min= -1.00783598057945E-05
DEBUG_STATS_RL:               GuNm1 (DYNAMICS)  max=  9.32223242457576E-06
DEBUG_STATS_RL:               GuNm1 (DYNAMICS) mean=  5.97966523910031E-09
DEBUG_STATS_RL:               GuNm1 (DYNAMICS) S.D.=  1.20228411057200E-06
DEBUG_STATS_RL:               GvNm1 (DYNAMICS)  min= -1.01811873629319E-05
DEBUG_STATS_RL:               GvNm1 (DYNAMICS)  max=  1.56635414973607E-05
DEBUG_STATS_RL:               GvNm1 (DYNAMICS) mean=  7.38719006026075E-07
DEBUG_STATS_RL:               GvNm1 (DYNAMICS) S.D.=  2.63967771499803E-06
DEBUG_STATS_RL:               GtNm1 (DYNAMICS)  min= -4.93180191390323E-06
DEBUG_STATS_RL:               GtNm1 (DYNAMICS)  max=  2.58505875987813E-06
DEBUG_STATS_RL:               GtNm1 (DYNAMICS) mean=  3.42346350183282E-09
DEBUG_STATS_RL:               GtNm1 (DYNAMICS) S.D.=  1.59467464977746E-07
DEBUG_STATS_RL:               GsNm1 (DYNAMICS)  min= -5.78279232890094E-07
DEBUG_STATS_RL:               GsNm1 (DYNAMICS)  max=  3.98036876590464E-07
DEBUG_STATS_RL:               GsNm1 (DYNAMICS) mean= -2.57752532881507E-10
DEBUG_STATS_RL:               GsNm1 (DYNAMICS) S.D.=  1.53493846281852E-08
DEBUG_STATS_RL:    cg2d_b (SOLVE_FOR_PRESSURE)  min= -1.91458553855004E+04
DEBUG_STATS_RL:    cg2d_b (SOLVE_FOR_PRESSURE)  max=  2.48388200836950E+04
DEBUG_STATS_RL:    cg2d_b (SOLVE_FOR_PRESSURE) mean=  4.72392642228219E+00
DEBUG_STATS_RL:    cg2d_b (SOLVE_FOR_PRESSURE) S.D.=  3.92623076013457E+03
 cg2d: Sum(rhs),rhsMax =   4.40274120539261E-01  1.63148020719263E+00
(PID.TID 0000.0001)  cg2d: iter=     1 ; resid.=  9.95465893913036E-02
(PID.TID 0000.0001)  cg2d: iter=     2 ; resid.=  9.16874391472602E-02
(PID.TID 0000.0001)  cg2d: iter=     3 ; resid.=  8.92469427170403E-02
(PID.TID 0000.0001)  cg2d: iter=     4 ; resid.=  8.04818151171840E-02
(PID.TID 0000.0001)  cg2d: iter=     5 ; resid.=  7.63455454135296E-02
(PID.TID 0000.0001)  cg2d: iter=     6 ; resid.=  6.96142390879005E-02
(PID.TID 0000.0001)  cg2d: iter=     7 ; resid.=  5.62213159380818E-02
(PID.TID 0000.0001)  cg2d: iter=     8 ; resid.=  4.25675189574307E-02
(PID.TID 0000.0001)  cg2d: iter=     9 ; resid.=  3.28501248240207E-02
(PID.TID 0000.0001)  cg2d: iter=    10 ; resid.=  2.37774196259053E-02
(PID.TID 0000.0001)  cg2d: iter=    11 ; resid.=  2.05373263739409E-02
(PID.TID 0000.0001)  cg2d: iter=    12 ; resid.=  1.82700674994175E-02
(PID.TID 0000.0001)  cg2d: iter=    13 ; resid.=  1.52781110371773E-02
(PID.TID 0000.0001)  cg2d: iter=    14 ; resid.=  1.28699156657514E-02
(PID.TID 0000.0001)  cg2d: iter=    15 ; resid.=  1.04649145213127E-02
(PID.TID 0000.0001)  cg2d: iter=    16 ; resid.=  8.70926874425238E-03
(PID.TID 0000.0001)  cg2d: iter=    17 ; resid.=  7.95878121140408E-03
(PID.TID 0000.0001)  cg2d: iter=    18 ; resid.=  6.58105596692150E-03
(PID.TID 0000.0001)  cg2d: iter=    19 ; resid.=  5.10272789730276E-03
(PID.TID 0000.0001)  cg2d: iter=    20 ; resid.=  4.01297402400601E-03
(PID.TID 0000.0001)  cg2d: iter=    21 ; resid.=  3.62109148533076E-03
(PID.TID 0000.0001)  cg2d: iter=    22 ; resid.=  3.27985750266883E-03
(PID.TID 0000.0001)  cg2d: iter=    23 ; resid.=  2.73994937211985E-03
(PID.TID 0000.0001)  cg2d: iter=    24 ; resid.=  2.21823077479647E-03
(PID.TID 0000.0001)  cg2d: iter=    25 ; resid.=  1.78549413972046E-03
(PID.TID 0000.0001)  cg2d: iter=    26 ; resid.=  1.36997089811349E-03
(PID.TID 0000.0001)  cg2d: iter=    27 ; resid.=  1.09838083388926E-03
(PID.TID 0000.0001)  cg2d: iter=    28 ; resid.=  8.58962771721224E-04
(PID.TID 0000.0001)  cg2d: iter=    29 ; resid.=  7.07467182541090E-04
(PID.TID 0000.0001)  cg2d: iter=    30 ; resid.=  5.58267176491473E-04
(PID.TID 0000.0001)  cg2d: iter=    31 ; resid.=  4.67817129344582E-04
(PID.TID 0000.0001)  cg2d: iter=    32 ; resid.=  3.41345326402459E-04
(PID.TID 0000.0001)  cg2d: iter=    33 ; resid.=  2.61234036336673E-04
(PID.TID 0000.0001)  cg2d: iter=    34 ; resid.=  2.30144820754226E-04
(PID.TID 0000.0001)  cg2d: iter=    35 ; resid.=  2.03566461740934E-04
(PID.TID 0000.0001)  cg2d: iter=    36 ; resid.=  1.74872536719642E-04
(PID.TID 0000.0001)  cg2d: iter=    37 ; resid.=  1.36283974658229E-04
(PID.TID 0000.0001)  cg2d: iter=    38 ; resid.=  1.18106976031147E-04
(PID.TID 0000.0001)  cg2d: iter=    39 ; resid.=  1.01877426296786E-04
(PID.TID 0000.0001)  cg2d: iter=    40 ; resid.=  8.24855771648354E-05
(PID.TID 0000.0001)  cg2d: iter=    41 ; resid.=  6.50608332230596E-05
(PID.TID 0000.0001)  cg2d: iter=    42 ; resid.=  5.57249602212384E-05
(PID.TID 0000.0001)  cg2d: iter=    43 ; resid.=  4.44424514887378E-05
(PID.TID 0000.0001)  cg2d: iter=    44 ; resid.=  3.51884745166562E-05
(PID.TID 0000.0001)  cg2d: iter=    45 ; resid.=  3.20967780182235E-05
(PID.TID 0000.0001)  cg2d: iter=    46 ; resid.=  2.51097652265092E-05
(PID.TID 0000.0001)  cg2d: iter=    47 ; resid.=  1.87415603112098E-05
(PID.TID 0000.0001)  cg2d: iter=    48 ; resid.=  1.47700738773856E-05
(PID.TID 0000.0001)  cg2d: iter=    49 ; resid.=  1.21964194760176E-05
(PID.TID 0000.0001)  cg2d: iter=    50 ; resid.=  1.05337041730469E-05
(PID.TID 0000.0001)  cg2d: iter=    51 ; resid.=  9.21320036419931E-06
(PID.TID 0000.0001)  cg2d: iter=    52 ; resid.=  8.08514201406122E-06
(PID.TID 0000.0001)  cg2d: iter=    53 ; resid.=  7.21727216602166E-06
(PID.TID 0000.0001)  cg2d: iter=    54 ; resid.=  6.33148448806329E-06
(PID.TID 0000.0001)  cg2d: iter=    55 ; resid.=  5.58270330636355E-06
(PID.TID 0000.0001)  cg2d: iter=    56 ; resid.=  4.54495059685021E-06
(PID.TID 0000.0001)  cg2d: iter=    57 ; resid.=  3.73624806308531E-06
(PID.TID 0000.0001)  cg2d: iter=    58 ; resid.=  2.98730241114580E-06
(PID.TID 0000.0001)  cg2d: iter=    59 ; resid.=  2.21609953688564E-06
(PID.TID 0000.0001)  cg2d: iter=    60 ; resid.=  1.71725821637980E-06
(PID.TID 0000.0001)  cg2d: iter=    61 ; resid.=  1.48539781411753E-06
(PID.TID 0000.0001)  cg2d: iter=    62 ; resid.=  1.32103122354905E-06
(PID.TID 0000.0001)  cg2d: iter=    63 ; resid.=  1.16454290678498E-06
(PID.TID 0000.0001)  cg2d: iter=    64 ; resid.=  9.66871258956665E-07
(PID.TID 0000.0001)  cg2d: iter=    65 ; resid.=  7.65000884336866E-07
(PID.TID 0000.0001)  cg2d: iter=    66 ; resid.=  5.98293224351451E-07
(PID.TID 0000.0001)  cg2d: iter=    67 ; resid.=  4.68737807834016E-07
(PID.TID 0000.0001)  cg2d: iter=    68 ; resid.=  4.65201865622768E-07
(PID.TID 0000.0001)  cg2d: iter=    69 ; resid.=  4.07647172548068E-07
(PID.TID 0000.0001)  cg2d: iter=    70 ; resid.=  3.44092478707980E-07
(PID.TID 0000.0001)  cg2d: iter=    71 ; resid.=  2.90376571066129E-07
(PID.TID 0000.0001)  cg2d: iter=    72 ; resid.=  2.47599768467810E-07
(PID.TID 0000.0001)  cg2d: iter=    73 ; resid.=  2.23314166414756E-07
(PID.TID 0000.0001)  cg2d: iter=    74 ; resid.=  1.96448054957026E-07
(PID.TID 0000.0001)  cg2d: iter=    75 ; resid.=  1.67030674376923E-07
(PID.TID 0000.0001)  cg2d: iter=    76 ; resid.=  1.36236296755752E-07
(PID.TID 0000.0001)  cg2d: iter=    77 ; resid.=  1.11580263539836E-07
(PID.TID 0000.0001)  cg2d: iter=    78 ; resid.=  8.77842007734333E-08
(PID.TID 0000.0001)  cg2d: iter=    79 ; resid.=  6.86897659401065E-08
(PID.TID 0000.0001)  cg2d: iter=    80 ; resid.=  5.08003884485743E-08
(PID.TID 0000.0001)  cg2d: iter=    81 ; resid.=  3.74121348825925E-08
(PID.TID 0000.0001)  cg2d: iter=    82 ; resid.=  2.65240789063530E-08
(PID.TID 0000.0001)  cg2d: iter=    83 ; resid.=  1.89273354921011E-08
(PID.TID 0000.0001)  cg2d: iter=    84 ; resid.=  1.49539058148329E-08
(PID.TID 0000.0001)  cg2d: iter=    85 ; resid.=  1.08315636250284E-08
(PID.TID 0000.0001)  cg2d: iter=    86 ; resid.=  8.18233495037476E-09
(PID.TID 0000.0001)  cg2d: iter=    87 ; resid.=  6.34519648082457E-09
(PID.TID 0000.0001)  cg2d: iter=    88 ; resid.=  4.47693945327433E-09
(PID.TID 0000.0001)  cg2d: iter=    89 ; resid.=  3.63653167717566E-09
(PID.TID 0000.0001)  cg2d: iter=    90 ; resid.=  3.07955770467163E-09
(PID.TID 0000.0001)  cg2d: iter=    91 ; resid.=  2.55143940971827E-09
(PID.TID 0000.0001)  cg2d: iter=    92 ; resid.=  2.14688053704170E-09
(PID.TID 0000.0001)  cg2d: iter=    93 ; resid.=  1.91630175118667E-09
(PID.TID 0000.0001)  cg2d: iter=    94 ; resid.=  1.63395248850538E-09
(PID.TID 0000.0001)  cg2d: iter=    95 ; resid.=  1.38821178085887E-09
(PID.TID 0000.0001)  cg2d: iter=    96 ; resid.=  1.13552100131655E-09
(PID.TID 0000.0001)  cg2d: iter=    97 ; resid.=  8.49164753807648E-10
(PID.TID 0000.0001)  cg2d: iter=    98 ; resid.=  6.60018851048803E-10
(PID.TID 0000.0001)  cg2d: iter=    99 ; resid.=  5.32309207029733E-10
(PID.TID 0000.0001)  cg2d: iter=   100 ; resid.=  4.58556038103638E-10
(PID.TID 0000.0001)  cg2d: iter=   101 ; resid.=  3.53724528997899E-10
(PID.TID 0000.0001)  cg2d: iter=   102 ; resid.=  2.70873534004307E-10
(PID.TID 0000.0001)  cg2d: iter=   103 ; resid.=  2.12007437604582E-10
(PID.TID 0000.0001)  cg2d: iter=   104 ; resid.=  1.75527909131110E-10
(PID.TID 0000.0001)  cg2d: iter=   105 ; resid.=  1.39465191054950E-10
(PID.TID 0000.0001)  cg2d: iter=   106 ; resid.=  1.09507231354621E-10
(PID.TID 0000.0001)  cg2d: iter=   107 ; resid.=  7.93159883826311E-11
(PID.TID 0000.0001)  cg2d: iter=   108 ; resid.=  5.98189835550354E-11
(PID.TID 0000.0001)  cg2d: iter=   109 ; resid.=  4.41850477424761E-11
(PID.TID 0000.0001)  cg2d: iter=   110 ; resid.=  3.12655317846872E-11
(PID.TID 0000.0001)  cg2d: iter=   111 ; resid.=  2.43119988733294E-11
(PID.TID 0000.0001)  cg2d: iter=   112 ; resid.=  1.85464613444870E-11
(PID.TID 0000.0001)  cg2d: iter=   113 ; resid.=  1.37051218569562E-11
(PID.TID 0000.0001)  cg2d: iter=   114 ; resid.=  9.65766806355982E-12
(PID.TID 0000.0001)  cg2d: iter=   115 ; resid.=  6.74022587174620E-12
(PID.TID 0000.0001)  cg2d: iter=   116 ; resid.=  4.79461203448274E-12
(PID.TID 0000.0001)  cg2d: iter=   117 ; resid.=  3.63076222511073E-12
(PID.TID 0000.0001)  cg2d: iter=   118 ; resid.=  2.67759421452194E-12
(PID.TID 0000.0001)  cg2d: iter=   119 ; resid.=  1.94112216930271E-12
(PID.TID 0000.0001)  cg2d: iter=   120 ; resid.=  1.45020303599804E-12
(PID.TID 0000.0001)  cg2d: iter=   121 ; resid.=  1.02550971497021E-12
(PID.TID 0000.0001)  cg2d: iter=   122 ; resid.=  7.35780325016210E-13
(PID.TID 0000.0001)  cg2d: iter=   123 ; resid.=  5.80500831433440E-13
(PID.TID 0000.0001)  cg2d: iter=   124 ; resid.=  4.85236625962893E-13
(PID.TID 0000.0001)  cg2d: iter=   125 ; resid.=  4.23643241431430E-13
(PID.TID 0000.0001)  cg2d: iter=   126 ; resid.=  3.51192923513547E-13
(PID.TID 0000.0001)  cg2d: iter=   127 ; resid.=  2.76486086598627E-13
(PID.TID 0000.0001)  cg2d: iter=   128 ; resid.=  2.03040512377929E-13
(PID.TID 0000.0001)  cg2d: iter=   129 ; resid.=  1.42194146041054E-13
(PID.TID 0000.0001)  cg2d: iter=   130 ; resid.=  9.74647570801859E-14
DEBUG_STATS_RL:    cg2d_x (SOLVE_FOR_PRESSURE)  min= -1.82822377201112E+01
DEBUG_STATS_RL:    cg2d_x (SOLVE_FOR_PRESSURE)  max=  8.91013376823443E+00
DEBUG_STATS_RL:    cg2d_x (SOLVE_FOR_PRESSURE) mean= -1.84098779507728E+00
DEBUG_STATS_RL:    cg2d_x (SOLVE_FOR_PRESSURE) S.D.=  7.29361912247616E+00
(PID.TID 0000.0001)      cg2d_init_res =   2.63855266716559E-01
(PID.TID 0000.0001)      cg2d_iters(min,last) =      -1     130
(PID.TID 0000.0001)      cg2d_last_res =   9.74647570801859E-14
(PID.TID 0000.0001) // =======================================================
(PID.TID 0000.0001) // Begin MONITOR dynamic field statistics
(PID.TID 0000.0001) // =======================================================
(PID.TID 0000.0001) %MON time_tsnumber                =                    68
(PID.TID 0000.0001) %MON time_secondsf                =   5.8752000000000E+06
(PID.TID 0000.0001) %MON dynstat_eta_max              =   9.0827051663959E-01
(PID.TID 0000.0001) %MON dynstat_eta_min              =  -1.8636327951185E+00
(PID.TID 0000.0001) %MON dynstat_eta_mean             =  -4.9288314741128E-03
(PID.TID 0000.0001) %MON dynstat_eta_sd               =   6.4616504261058E-01
(PID.TID 0000.0001) %MON dynstat_eta_del2             =   2.4013399707519E-03
(PID.TID 0000.0001) %MON dynstat_uvel_max             =   1.4355481164258E-01
(PID.TID 0000.0001) %MON dynstat_uvel_min             =  -1.2326934462273E-01
(PID.TID 0000.0001) %MON dynstat_uvel_mean            =   2.3404701963844E-03
(PID.TID 0000.0001) %MON dynstat_uvel_sd              =   1.4105373336376E-02
(PID.TID 0000.0001) %MON dynstat_uvel_del2            =   8.7210038454231E-05
(PID.TID 0000.0001) %MON dynstat_vvel_max             =   1.4966706901436E-01
(PID.TID 0000.0001) %MON dynstat_vvel_min             =  -9.2622207128274E-02
(PID.TID 0000.0001) %MON dynstat_vvel_mean            =  -8.2973959690339E-06
(PID.TID 0000.0001) %MON dynstat_vvel_sd              =   8.4951008577493E-03
(PID.TID 0000.0001) %MON dynstat_vvel_del2            =   7.3812295081104E-05
(PID.TID 0000.0001) %MON dynstat_wvel_max             =   7.6553560315685E-05
(PID.TID 0000.0001) %MON dynstat_wvel_min             =  -8.2696323333405E-05
(PID.TID 0000.0001) %MON dynstat_wvel_mean            =   1.2669782777649E-22
(PID.TID 0000.0001) %MON dynstat_wvel_sd              =   1.0832873088888E-05
(PID.TID 0000.0001) %MON dynstat_wvel_del2            =   1.0895266463446E-07
(PID.TID 0000.0001) %MON dynstat_theta_max            =   3.0738552978566E+01
(PID.TID 0000.0001) %MON dynstat_theta_min            =  -1.9550974041967E+00
(PID.TID 0000.0001) %MON dynstat_theta_mean           =   3.6336380394370E+00
(PID.TID 0000.0001) %MON dynstat_theta_sd             =   4.4252852603810E+00
(PID.TID 0000.0001) %MON dynstat_theta_del2           =   4.8847559073643E-03
(PID.TID 0000.0001) %MON dynstat_salt_max             =   3.7477206943329E+01
(PID.TID 0000.0001) %MON dynstat_salt_min             =   2.9898776714978E+01
(PID.TID 0000.0001) %MON dynstat_salt_mean            =   3.4727997308445E+01
(PID.TID 0000.0001) %MON dynstat_salt_sd              =   2.9649606787800E-01
(PID.TID 0000.0001) %MON dynstat_salt_del2            =   9.8909588619560E-04
(PID.TID 0000.0001) %MON dynstat_sst_max              =   3.0738552978566E+01
(PID.TID 0000.0001) %MON dynstat_sst_min              =  -1.9550974041967E+00
(PID.TID 0000.0001) %MON dynstat_sst_mean             =   1.9036986339646E+01
(PID.TID 0000.0001) %MON dynstat_sst_sd               =   9.0999986039949E+00
(PID.TID 0000.0001) %MON dynstat_sst_del2             =   2.8249415469958E-02
(PID.TID 0000.0001) %MON dynstat_sss_max              =   3.7462101066284E+01
(PID.TID 0000.0001) %MON dynstat_sss_min              =   2.9898776714978E+01
(PID.TID 0000.0001) %MON dynstat_sss_mean             =   3.4848263653298E+01
(PID.TID 0000.0001) %MON dynstat_sss_sd               =   9.8308133573592E-01
(PID.TID 0000.0001) %MON dynstat_sss_del2             =   8.0649552918139E-03
(PID.TID 0000.0001) %MON forcing_qnet_max             =   2.9689290364583E+02
(PID.TID 0000.0001) %MON forcing_qnet_min             =  -1.6624982503255E+02
(PID.TID 0000.0001) %MON forcing_qnet_mean            =  -9.0517819871576E+00
(PID.TID 0000.0001) %MON forcing_qnet_sd              =   5.2467021838171E+01
(PID.TID 0000.0001) %MON forcing_qnet_del2            =   8.6239476817543E-01
(PID.TID 0000.0001) %MON forcing_qsw_max              =   0.0000000000000E+00
(PID.TID 0000.0001) %MON forcing_qsw_min              =   0.0000000000000E+00
(PID.TID 0000.0001) %MON forcing_qsw_mean             =   0.0000000000000E+00
(PID.TID 0000.0001) %MON forcing_qsw_sd               =   0.0000000000000E+00
(PID.TID 0000.0001) %MON forcing_qsw_del2             =   0.0000000000000E+00
(PID.TID 0000.0001) %MON forcing_empmr_max            =   6.9154872524753E-05
(PID.TID 0000.0001) %MON forcing_empmr_min            =  -8.0070980838324E-05
(PID.TID 0000.0001) %MON forcing_empmr_mean           =   6.5543050067353E-07
(PID.TID 0000.0001) %MON forcing_empmr_sd             =   2.6530988089422E-05
(PID.TID 0000.0001) %MON forcing_empmr_del2           =   3.5820452796475E-07
(PID.TID 0000.0001) %MON forcing_fu_max               =   3.4202007055283E-01
(PID.TID 0000.0001) %MON forcing_fu_min               =  -3.3757946888606E-01
(PID.TID 0000.0001) %MON forcing_fu_mean              =   1.9703132584721E-02
(PID.TID 0000.0001) %MON forcing_fu_sd                =   9.7988970330100E-02
(PID.TID 0000.0001) %MON forcing_fu_del2              =   7.5916327161955E-04
(PID.TID 0000.0001) %MON forcing_fv_max               =   1.5269908905029E-01
(PID.TID 0000.0001) %MON forcing_fv_min               =  -1.8134930332502E-01
(PID.TID 0000.0001) %MON forcing_fv_mean              =  -7.4461486402888E-03
(PID.TID 0000.0001) %MON forcing_fv_sd                =   4.1765973059055E-02
(PID.TID 0000.0001) %MON forcing_fv_del2              =   4.7254399856662E-04
(PID.TID 0000.0001) %MON trAdv_CFL_u_max              =   4.6274966339421E-02
(PID.TID 0000.0001) %MON trAdv_CFL_v_max              =   2.8736568603379E-02
(PID.TID 0000.0001) %MON trAdv_CFL_w_max              =   2.7627478823222E-02
(PID.TID 0000.0001) %MON advcfl_uvel_max              =   4.7449978458964E-02
(PID.TID 0000.0001) %MON advcfl_vvel_max              =   2.9077911138289E-02
(PID.TID 0000.0001) %MON advcfl_wvel_max              =   2.8726023993654E-02
(PID.TID 0000.0001) %MON advcfl_W_hf_max              =   3.4471228792385E-02
(PID.TID 0000.0001) %MON pe_b_mean                    =   5.3431010339393E-04
(PID.TID 0000.0001) %MON ke_max                       =   1.2961065411727E-02
(PID.TID 0000.0001) %MON ke_mean                      =   1.2527873741676E-04
(PID.TID 0000.0001) %MON ke_vol                       =   1.3226782436723E+18
(PID.TID 0000.0001) %MON vort_r_min                   =  -2.8540387864345E-07
(PID.TID 0000.0001) %MON vort_r_max                   =   4.0476296174857E-07
(PID.TID 0000.0001) %MON vort_a_mean                  =  -2.5274806956490E-05
(PID.TID 0000.0001) %MON vort_a_sd                    =   7.3604660737286E-05
(PID.TID 0000.0001) %MON vort_p_mean                  =  -3.1845655243871E-05
(PID.TID 0000.0001) %MON vort_p_sd                    =   1.3162480463997E-04
(PID.TID 0000.0001) %MON surfExpan_theta_mean         =   3.8770329626672E-07
(PID.TID 0000.0001) %MON surfExpan_salt_mean          =  -7.8738741266960E-08
(PID.TID 0000.0001) // =======================================================
(PID.TID 0000.0001) // End MONITOR dynamic field statistics
(PID.TID 0000.0001) // =======================================================
 EXTERNAL_FIELDS_LOAD,        68 : iP,iLd,i0,i1=    2    3    2    3 ; Wght=  0.2333333333  0.7666666667
 EXTERNAL_FIELDS_LOAD: (fu0,1),fu,fv= -1.4435E-02 -2.7199E-02 -2.4221E-02 -4.5581E-03
 EXTERNAL_FIELDS_LOAD: SST,SSS,Q,E-P= -2.6509E-01  3.4542E+01  2.2125E+02  8.9166E-06
DEBUG_STATS_RL:          Uvel (THERMODYNAMICS)  min= -1.23269344622726E-01
DEBUG_STATS_RL:          Uvel (THERMODYNAMICS)  max=  1.43554811642576E-01
DEBUG_STATS_RL:          Uvel (THERMODYNAMICS) mean=  5.92571038793962E-03
DEBUG_STATS_RL:          Uvel (THERMODYNAMICS) S.D.=  2.19698891970544E-02
DEBUG_STATS_RL:          Vvel (THERMODYNAMICS)  min= -9.26222071282740E-02
DEBUG_STATS_RL:          Vvel (THERMODYNAMICS)  max=  1.49667069014355E-01
DEBUG_STATS_RL:          Vvel (THERMODYNAMICS) mean=  4.35993611546832E-04
DEBUG_STATS_RL:          Vvel (THERMODYNAMICS) S.D.=  1.35907272110004E-02
DEBUG_STATS_RL:          Wvel (THERMODYNAMICS)  min= -8.26963233334047E-05
DEBUG_STATS_RL:          Wvel (THERMODYNAMICS)  max=  7.65535603156854E-05
DEBUG_STATS_RL:          Wvel (THERMODYNAMICS) mean= -1.33986202790809E-07
DEBUG_STATS_RL:          Wvel (THERMODYNAMICS) S.D.=  9.52138143126470E-06
DEBUG_STATS_RL:         Theta (THERMODYNAMICS)  min= -1.95354647254305E+00
DEBUG_STATS_RL:         Theta (THERMODYNAMICS)  max=  3.07620647059562E+01
DEBUG_STATS_RL:         Theta (THERMODYNAMICS) mean=  3.23067390005016E+00
DEBUG_STATS_RL:         Theta (THERMODYNAMICS) S.D.=  5.88140696437921E+00
DEBUG_STATS_RL:          Salt (THERMODYNAMICS)  min=  9.99999999999997E-03
DEBUG_STATS_RL:          Salt (THERMODYNAMICS)  max=  3.74770129438457E+01
DEBUG_STATS_RL:          Salt (THERMODYNAMICS) mean=  1.88547341368185E+01
DEBUG_STATS_RL:          Salt (THERMODYNAMICS) S.D.=  1.73002772466433E+01
DEBUG_STATS_RL:         GtNm1 (THERMODYNAMICS)  min= -5.00646886020572E-06
DEBUG_STATS_RL:         GtNm1 (THERMODYNAMICS)  max=  2.64833394851534E-06
DEBUG_STATS_RL:         GtNm1 (THERMODYNAMICS) mean=  3.36098513335865E-09
DEBUG_STATS_RL:         GtNm1 (THERMODYNAMICS) S.D.=  1.58362342361880E-07
DEBUG_STATS_RL:         GsNm1 (THERMODYNAMICS)  min= -5.69995452460189E-07
DEBUG_STATS_RL:         GsNm1 (THERMODYNAMICS)  max=  3.89475725273181E-07
DEBUG_STATS_RL:         GsNm1 (THERMODYNAMICS) mean= -2.08230008001798E-10
DEBUG_STATS_RL:         GsNm1 (THERMODYNAMICS) S.D.=  1.51997388417123E-08
DEBUG_STATS_RL:                EtaN (DYNAMICS)  min= -1.86363279511850E+00
DEBUG_STATS_RL:                EtaN (DYNAMICS)  max=  9.08270516639587E-01
DEBUG_STATS_RL:                EtaN (DYNAMICS) mean= -1.87664403167919E-01
DEBUG_STATS_RL:                EtaN (DYNAMICS) S.D.=  7.43488187816127E-01
DEBUG_STATS_RL:                Uvel (DYNAMICS)  min= -1.23269344622726E-01
DEBUG_STATS_RL:                Uvel (DYNAMICS)  max=  1.43554811642576E-01
DEBUG_STATS_RL:                Uvel (DYNAMICS) mean=  5.92571038793962E-03
DEBUG_STATS_RL:                Uvel (DYNAMICS) S.D.=  2.19698891970544E-02
DEBUG_STATS_RL:                Vvel (DYNAMICS)  min= -9.26222071282740E-02
DEBUG_STATS_RL:                Vvel (DYNAMICS)  max=  1.49667069014355E-01
DEBUG_STATS_RL:                Vvel (DYNAMICS) mean=  4.35993611546832E-04
DEBUG_STATS_RL:                Vvel (DYNAMICS) S.D.=  1.35907272110004E-02
DEBUG_STATS_RL:                Wvel (DYNAMICS)  min= -8.26963233334047E-05
DEBUG_STATS_RL:                Wvel (DYNAMICS)  max=  7.65535603156854E-05
DEBUG_STATS_RL:                Wvel (DYNAMICS) mean= -1.33986202790809E-07
DEBUG_STATS_RL:                Wvel (DYNAMICS) S.D.=  9.52138143126470E-06
DEBUG_STATS_RL:               Theta (DYNAMICS)  min= -1.95354647254305E+00
DEBUG_STATS_RL:               Theta (DYNAMICS)  max=  3.07620647059562E+01
DEBUG_STATS_RL:               Theta (DYNAMICS) mean=  3.23067390005016E+00
DEBUG_STATS_RL:               Theta (DYNAMICS) S.D.=  5.88140696437921E+00
DEBUG_STATS_RL:                Salt (DYNAMICS)  min=  9.99999999999997E-03
DEBUG_STATS_RL:                Salt (DYNAMICS)  max=  3.74770129438457E+01
DEBUG_STATS_RL:                Salt (DYNAMICS) mean=  1.88547341368185E+01
DEBUG_STATS_RL:                Salt (DYNAMICS) S.D.=  1.73002772466433E+01
DEBUG_STATS_RL:                  Gu (DYNAMICS)  min= -1.21583874481335E-01
DEBUG_STATS_RL:                  Gu (DYNAMICS)  max=  1.44775647610807E-01
DEBUG_STATS_RL:                  Gu (DYNAMICS) mean=  5.89552725905604E-03
DEBUG_STATS_RL:                  Gu (DYNAMICS) S.D.=  2.25322123488640E-02
DEBUG_STATS_RL:                  Gv (DYNAMICS)  min= -9.99168772989807E-02
DEBUG_STATS_RL:                  Gv (DYNAMICS)  max=  1.50241266327693E-01
DEBUG_STATS_RL:                  Gv (DYNAMICS) mean=  3.16055927387671E-03
DEBUG_STATS_RL:                  Gv (DYNAMICS) S.D.=  1.47045888198938E-02
DEBUG_STATS_RL:               GuNm1 (DYNAMICS)  min= -1.01251760189733E-05
DEBUG_STATS_RL:               GuNm1 (DYNAMICS)  max=  9.31732291074821E-06
DEBUG_STATS_RL:               GuNm1 (DYNAMICS) mean=  6.13913174796191E-09
DEBUG_STATS_RL:               GuNm1 (DYNAMICS) S.D.=  1.20381945667654E-06
DEBUG_STATS_RL:               GvNm1 (DYNAMICS)  min= -1.01805658219102E-05
DEBUG_STATS_RL:               GvNm1 (DYNAMICS)  max=  1.56480399167053E-05
DEBUG_STATS_RL:               GvNm1 (DYNAMICS) mean=  7.38498537045139E-07
DEBUG_STATS_RL:               GvNm1 (DYNAMICS) S.D.=  2.63764601195978E-06
DEBUG_STATS_RL:               GtNm1 (DYNAMICS)  min= -5.00646886020572E-06
DEBUG_STATS_RL:               GtNm1 (DYNAMICS)  max=  2.64833394851534E-06
DEBUG_STATS_RL:               GtNm1 (DYNAMICS) mean=  3.36098513335865E-09
DEBUG_STATS_RL:               GtNm1 (DYNAMICS) S.D.=  1.58362342361880E-07
DEBUG_STATS_RL:               GsNm1 (DYNAMICS)  min= -5.69995452460189E-07
DEBUG_STATS_RL:               GsNm1 (DYNAMICS)  max=  3.89475725273181E-07
DEBUG_STATS_RL:               GsNm1 (DYNAMICS) mean= -2.08230008001798E-10
DEBUG_STATS_RL:               GsNm1 (DYNAMICS) S.D.=  1.51997388417123E-08
DEBUG_STATS_RL:    cg2d_b (SOLVE_FOR_PRESSURE)  min= -1.90597353564929E+04
DEBUG_STATS_RL:    cg2d_b (SOLVE_FOR_PRESSURE)  max=  2.47579396711137E+04
DEBUG_STATS_RL:    cg2d_b (SOLVE_FOR_PRESSURE) mean=  4.77531870410821E+00
DEBUG_STATS_RL:    cg2d_b (SOLVE_FOR_PRESSURE) S.D.=  3.92742881575371E+03
 cg2d: Sum(rhs),rhsMax =   4.46517882621173E-01  1.62616776514299E+00
(PID.TID 0000.0001)  cg2d: iter=     1 ; resid.=  1.00169529115746E-01
(PID.TID 0000.0001)  cg2d: iter=     2 ; resid.=  8.99561702244158E-02
(PID.TID 0000.0001)  cg2d: iter=     3 ; resid.=  8.68728025278180E-02
(PID.TID 0000.0001)  cg2d: iter=     4 ; resid.=  7.88621568047062E-02
(PID.TID 0000.0001)  cg2d: iter=     5 ; resid.=  7.53108589886679E-02
(PID.TID 0000.0001)  cg2d: iter=     6 ; resid.=  6.94299219713004E-02
(PID.TID 0000.0001)  cg2d: iter=     7 ; resid.=  5.59957106357517E-02
(PID.TID 0000.0001)  cg2d: iter=     8 ; resid.=  4.16786394130731E-02
(PID.TID 0000.0001)  cg2d: iter=     9 ; resid.=  3.21651672237460E-02
(PID.TID 0000.0001)  cg2d: iter=    10 ; resid.=  2.29184764069930E-02
(PID.TID 0000.0001)  cg2d: iter=    11 ; resid.=  1.97622124909313E-02
(PID.TID 0000.0001)  cg2d: iter=    12 ; resid.=  1.77579016701373E-02
(PID.TID 0000.0001)  cg2d: iter=    13 ; resid.=  1.48713586054536E-02
(PID.TID 0000.0001)  cg2d: iter=    14 ; resid.=  1.26458700141477E-02
(PID.TID 0000.0001)  cg2d: iter=    15 ; resid.=  1.02703479829090E-02
(PID.TID 0000.0001)  cg2d: iter=    16 ; resid.=  8.59793427514544E-03
(PID.TID 0000.0001)  cg2d: iter=    17 ; resid.=  7.76743740091170E-03
(PID.TID 0000.0001)  cg2d: iter=    18 ; resid.=  6.51570503501849E-03
(PID.TID 0000.0001)  cg2d: iter=    19 ; resid.=  5.02305036685953E-03
(PID.TID 0000.0001)  cg2d: iter=    20 ; resid.=  3.84792566568582E-03
(PID.TID 0000.0001)  cg2d: iter=    21 ; resid.=  3.43760193566358E-03
(PID.TID 0000.0001)  cg2d: iter=    22 ; resid.=  3.12707301620086E-03
(PID.TID 0000.0001)  cg2d: iter=    23 ; resid.=  2.65077638704110E-03
(PID.TID 0000.0001)  cg2d: iter=    24 ; resid.=  2.18120305946106E-03
(PID.TID 0000.0001)  cg2d: iter=    25 ; resid.=  1.76823782121721E-03
(PID.TID 0000.0001)  cg2d: iter=    26 ; resid.=  1.35655447948064E-03
(PID.TID 0000.0001)  cg2d: iter=    27 ; resid.=  1.06318195257857E-03
(PID.TID 0000.0001)  cg2d: iter=    28 ; resid.=  8.17051326082403E-04
(PID.TID 0000.0001)  cg2d: iter=    29 ; resid.=  6.65387133703186E-04
(PID.TID 0000.0001)  cg2d: iter=    30 ; resid.=  5.26955794275410E-04
(PID.TID 0000.0001)  cg2d: iter=    31 ; resid.=  4.46117293838784E-04
(PID.TID 0000.0001)  cg2d: iter=    32 ; resid.=  3.29818822212305E-04
(PID.TID 0000.0001)  cg2d: iter=    33 ; resid.=  2.55873921560843E-04
(PID.TID 0000.0001)  cg2d: iter=    34 ; resid.=  2.24477498610372E-04
(PID.TID 0000.0001)  cg2d: iter=    35 ; resid.=  1.97263105566052E-04
(PID.TID 0000.0001)  cg2d: iter=    36 ; resid.=  1.69413613842321E-04
(PID.TID 0000.0001)  cg2d: iter=    37 ; resid.=  1.31247365265830E-04
(PID.TID 0000.0001)  cg2d: iter=    38 ; resid.=  1.13004791801877E-04
(PID.TID 0000.0001)  cg2d: iter=    39 ; resid.=  9.72388528919937E-05
(PID.TID 0000.0001)  cg2d: iter=    40 ; resid.=  7.98965556960758E-05
(PID.TID 0000.0001)  cg2d: iter=    41 ; resid.=  6.36787784194338E-05
(PID.TID 0000.0001)  cg2d: iter=    42 ; resid.=  5.43303437637696E-05
(PID.TID 0000.0001)  cg2d: iter=    43 ; resid.=  4.27857754639771E-05
(PID.TID 0000.0001)  cg2d: iter=    44 ; resid.=  3.31361957314345E-05
(PID.TID 0000.0001)  cg2d: iter=    45 ; resid.=  2.97481479545815E-05
(PID.TID 0000.0001)  cg2d: iter=    46 ; resid.=  2.29949641114164E-05
(PID.TID 0000.0001)  cg2d: iter=    47 ; resid.=  1.72097281862517E-05
(PID.TID 0000.0001)  cg2d: iter=    48 ; resid.=  1.34973129351461E-05
(PID.TID 0000.0001)  cg2d: iter=    49 ; resid.=  1.08727403531912E-05
(PID.TID 0000.0001)  cg2d: iter=    50 ; resid.=  9.25292361150965E-06
(PID.TID 0000.0001)  cg2d: iter=    51 ; resid.=  8.01837492382899E-06
(PID.TID 0000.0001)  cg2d: iter=    52 ; resid.=  6.94358788522144E-06
(PID.TID 0000.0001)  cg2d: iter=    53 ; resid.=  6.03441143688274E-06
(PID.TID 0000.0001)  cg2d: iter=    54 ; resid.=  5.15472728511158E-06
(PID.TID 0000.0001)  cg2d: iter=    55 ; resid.=  4.45520926008287E-06
(PID.TID 0000.0001)  cg2d: iter=    56 ; resid.=  3.55958933121441E-06
(PID.TID 0000.0001)  cg2d: iter=    57 ; resid.=  3.00397959130397E-06
(PID.TID 0000.0001)  cg2d: iter=    58 ; resid.=  2.43231494855311E-06
(PID.TID 0000.0001)  cg2d: iter=    59 ; resid.=  1.80868547103799E-06
(PID.TID 0000.0001)  cg2d: iter=    60 ; resid.=  1.35680698030978E-06
(PID.TID 0000.0001)  cg2d: iter=    61 ; resid.=  1.10509461567442E-06
(PID.TID 0000.0001)  cg2d: iter=    62 ; resid.=  9.39159622084608E-07
(PID.TID 0000.0001)  cg2d: iter=    63 ; resid.=  8.01897105997749E-07
(PID.TID 0000.0001)  cg2d: iter=    64 ; resid.=  6.55653957745597E-07
(PID.TID 0000.0001)  cg2d: iter=    65 ; resid.=  4.95530137749611E-07
(PID.TID 0000.0001)  cg2d: iter=    66 ; resid.=  3.68262273984920E-07
(PID.TID 0000.0001)  cg2d: iter=    67 ; resid.=  2.56909042890237E-07
(PID.TID 0000.0001)  cg2d: iter=    68 ; resid.=  2.18510013553369E-07
(PID.TID 0000.0001)  cg2d: iter=    69 ; resid.=  1.74810918200071E-07
(PID.TID 0000.0001)  cg2d: iter=    70 ; resid.=  1.34447809181934E-07
(PID.TID 0000.0001)  cg2d: iter=    71 ; resid.=  9.89075176538062E-08
(PID.TID 0000.0001)  cg2d: iter=    72 ; resid.=  7.11313371364328E-08
(PID.TID 0000.0001)  cg2d: iter=    73 ; resid.=  5.44742787115520E-08
(PID.TID 0000.0001)  cg2d: iter=    74 ; resid.=  4.26964737539468E-08
(PID.TID 0000.0001)  cg2d: iter=    75 ; resid.=  3.37485166280000E-08
(PID.TID 0000.0001)  cg2d: iter=    76 ; resid.=  2.71920890637958E-08
(PID.TID 0000.0001)  cg2d: iter=    77 ; resid.=  2.31866440661216E-08
(PID.TID 0000.0001)  cg2d: iter=    78 ; resid.=  1.98906003427396E-08
(PID.TID 0000.0001)  cg2d: iter=    79 ; resid.=  1.87451994745992E-08
(PID.TID 0000.0001)  cg2d: iter=    80 ; resid.=  1.76724491234264E-08
(PID.TID 0000.0001)  cg2d: iter=    81 ; resid.=  1.65850359508008E-08
(PID.TID 0000.0001)  cg2d: iter=    82 ; resid.=  1.43656474529237E-08
(PID.TID 0000.0001)  cg2d: iter=    83 ; resid.=  1.18687578147258E-08
(PID.TID 0000.0001)  cg2d: iter=    84 ; resid.=  1.01385806742573E-08
(PID.TID 0000.0001)  cg2d: iter=    85 ; resid.=  7.76082505136843E-09
(PID.TID 0000.0001)  cg2d: iter=    86 ; resid.=  6.14174999866729E-09
(PID.TID 0000.0001)  cg2d: iter=    87 ; resid.=  4.98318259600038E-09
(PID.TID 0000.0001)  cg2d: iter=    88 ; resid.=  3.70830948965888E-09
(PID.TID 0000.0001)  cg2d: iter=    89 ; resid.=  3.21408116242008E-09
(PID.TID 0000.0001)  cg2d: iter=    90 ; resid.=  2.87910752293914E-09
(PID.TID 0000.0001)  cg2d: iter=    91 ; resid.=  2.49764726166679E-09
(PID.TID 0000.0001)  cg2d: iter=    92 ; resid.=  2.13324478313255E-09
(PID.TID 0000.0001)  cg2d: iter=    93 ; resid.=  1.93328809567291E-09
(PID.TID 0000.0001)  cg2d: iter=    94 ; resid.=  1.62597827578927E-09
(PID.TID 0000.0001)  cg2d: iter=    95 ; resid.=  1.34892224575770E-09
(PID.TID 0000.0001)  cg2d: iter=    96 ; resid.=  1.09083150102606E-09
(PID.TID 0000.0001)  cg2d: iter=    97 ; resid.=  8.18412013850587E-10
(PID.TID 0000.0001)  cg2d: iter=    98 ; resid.=  6.41004098385314E-10
(PID.TID 0000.0001)  cg2d: iter=    99 ; resid.=  5.23699022197465E-10
(PID.TID 0000.0001)  cg2d: iter=   100 ; resid.=  4.70531246622137E-10
(PID.TID 0000.0001)  cg2d: iter=   101 ; resid.=  3.61443541156188E-10
(PID.TID 0000.0001)  cg2d: iter=   102 ; resid.=  2.81630765661790E-10
(PID.TID 0000.0001)  cg2d: iter=   103 ; resid.=  2.26890926719936E-10
(PID.TID 0000.0001)  cg2d: iter=   104 ; resid.=  1.86467937091927E-10
(PID.TID 0000.0001)  cg2d: iter=   105 ; resid.=  1.49595805782010E-10
(PID.TID 0000.0001)  cg2d: iter=   106 ; resid.=  1.21340889408012E-10
(PID.TID 0000.0001)  cg2d: iter=   107 ; resid.=  8.72141707888988E-11
(PID.TID 0000.0001)  cg2d: iter=   108 ; resid.=  6.53735396545233E-11
(PID.TID 0000.0001)  cg2d: iter=   109 ; resid.=  4.91752804236454E-11
(PID.TID 0000.0001)  cg2d: iter=   110 ; resid.=  3.45122946986565E-11
(PID.TID 0000.0001)  cg2d: iter=   111 ; resid.=  2.71835149106808E-11
(PID.TID 0000.0001)  cg2d: iter=   112 ; resid.=  2.14448264971192E-11
(PID.TID 0000.0001)  cg2d: iter=   113 ; resid.=  1.65430140241710E-11
(PID.TID 0000.0001)  cg2d: iter=   114 ; resid.=  1.21601224064093E-11
(PID.TID 0000.0001)  cg2d: iter=   115 ; resid.=  9.32906192385235E-12
(PID.TID 0000.0001)  cg2d: iter=   116 ; resid.=  7.28967991523214E-12
(PID.TID 0000.0001)  cg2d: iter=   117 ; resid.=  6.01470500132537E-12
(PID.TID 0000.0001)  cg2d: iter=   118 ; resid.=  4.75745018396493E-12
(PID.TID 0000.0001)  cg2d: iter=   119 ; resid.=  3.57463744363089E-12
(PID.TID 0000.0001)  cg2d: iter=   120 ; resid.=  2.67263402494097E-12
(PID.TID 0000.0001)  cg2d: iter=   121 ; resid.=  1.94238786269771E-12
(PID.TID 0000.0001)  cg2d: iter=   122 ; resid.=  1.50630896410667E-12
(PID.TID 0000.0001)  cg2d: iter=   123 ; resid.=  1.20543753268922E-12
(PID.TID 0000.0001)  cg2d: iter=   124 ; resid.=  9.72988736715726E-13
(PID.TID 0000.0001)  cg2d: iter=   125 ; resid.=  7.72038743158038E-13
(PID.TID 0000.0001)  cg2d: iter=   126 ; resid.=  5.51051379513310E-13
(PID.TID 0000.0001)  cg2d: iter=   127 ; resid.=  3.76339317505938E-13
(PID.TID 0000.0001)  cg2d: iter=   128 ; resid.=  2.50825011573266E-13
(PID.TID 0000.0001)  cg2d: iter=   129 ; resid.=  1.68396596519977E-13
(PID.TID 0000.0001)  cg2d: iter=   130 ; resid.=  1.11914845190458E-13
(PID.TID 0000.0001)  cg2d: iter=   131 ; resid.=  7.74967908404692E-14
DEBUG_STATS_RL:    cg2d_x (SOLVE_FOR_PRESSURE)  min= -1.85037175015325E+01
DEBUG_STATS_RL:    cg2d_x (SOLVE_FOR_PRESSURE)  max=  9.17246030157003E+00
DEBUG_STATS_RL:    cg2d_x (SOLVE_FOR_PRESSURE) mean= -1.85738585237443E+00
DEBUG_STATS_RL:    cg2d_x (SOLVE_FOR_PRESSURE) S.D.=  7.37378081155599E+00
(PID.TID 0000.0001)      cg2d_init_res =   2.65180989410473E-01
(PID.TID 0000.0001)      cg2d_iters(min,last) =      -1     131
(PID.TID 0000.0001)      cg2d_last_res =   7.74967908404692E-14
(PID.TID 0000.0001) // =======================================================
(PID.TID 0000.0001) // Begin MONITOR dynamic field statistics
(PID.TID 0000.0001) // =======================================================
(PID.TID 0000.0001) %MON time_tsnumber                =                    69
(PID.TID 0000.0001) %MON time_secondsf                =   5.9616000000000E+06
(PID.TID 0000.0001) %MON dynstat_eta_max              =   9.3501124378905E-01
(PID.TID 0000.0001) %MON dynstat_eta_min              =  -1.8862097351218E+00
(PID.TID 0000.0001) %MON dynstat_eta_mean             =  -4.9824529477651E-03
(PID.TID 0000.0001) %MON dynstat_eta_sd               =   6.5507738243478E-01
(PID.TID 0000.0001) %MON dynstat_eta_del2             =   2.4052479802189E-03
(PID.TID 0000.0001) %MON dynstat_uvel_max             =   1.4619636758427E-01
(PID.TID 0000.0001) %MON dynstat_uvel_min             =  -1.2204818347653E-01
(PID.TID 0000.0001) %MON dynstat_uvel_mean            =   2.3546343100602E-03
(PID.TID 0000.0001) %MON dynstat_uvel_sd              =   1.4198460139089E-02
(PID.TID 0000.0001) %MON dynstat_uvel_del2            =   8.7640204569795E-05
(PID.TID 0000.0001) %MON dynstat_vvel_max             =   1.5043294058072E-01
(PID.TID 0000.0001) %MON dynstat_vvel_min             =  -8.9449016471145E-02
(PID.TID 0000.0001) %MON dynstat_vvel_mean            =  -2.2865776084734E-05
(PID.TID 0000.0001) %MON dynstat_vvel_sd              =   8.4588169186788E-03
(PID.TID 0000.0001) %MON dynstat_vvel_del2            =   7.3874991829469E-05
(PID.TID 0000.0001) %MON dynstat_wvel_max             =   8.4843084111545E-05
(PID.TID 0000.0001) %MON dynstat_wvel_min             =  -8.4009008486043E-05
(PID.TID 0000.0001) %MON dynstat_wvel_mean            =   3.2885239760822E-22
(PID.TID 0000.0001) %MON dynstat_wvel_sd              =   1.0785090537862E-05
(PID.TID 0000.0001) %MON dynstat_wvel_del2            =   1.0795552024218E-07
(PID.TID 0000.0001) %MON dynstat_theta_max            =   3.0762064705956E+01
(PID.TID 0000.0001) %MON dynstat_theta_min            =  -1.9535464725431E+00
(PID.TID 0000.0001) %MON dynstat_theta_mean           =   3.6336784144560E+00
(PID.TID 0000.0001) %MON dynstat_theta_sd             =   4.4254717002445E+00
(PID.TID 0000.0001) %MON dynstat_theta_del2           =   4.8804236914210E-03
(PID.TID 0000.0001) %MON dynstat_salt_max             =   3.7477012943846E+01
(PID.TID 0000.0001) %MON dynstat_salt_min             =   2.9900388305909E+01
(PID.TID 0000.0001) %MON dynstat_salt_mean            =   3.4727999864576E+01
(PID.TID 0000.0001) %MON dynstat_salt_sd              =   2.9650639214059E-01
(PID.TID 0000.0001) %MON dynstat_salt_del2            =   9.8901667843823E-04
(PID.TID 0000.0001) %MON dynstat_sst_max              =   3.0762064705956E+01
(PID.TID 0000.0001) %MON dynstat_sst_min              =  -1.9535464725431E+00
(PID.TID 0000.0001) %MON dynstat_sst_mean             =   1.9041282772536E+01
(PID.TID 0000.0001) %MON dynstat_sst_sd               =   9.1050698028701E+00
(PID.TID 0000.0001) %MON dynstat_sst_del2             =   2.8299871776207E-02
(PID.TID 0000.0001) %MON dynstat_sss_max              =   3.7462814441439E+01
(PID.TID 0000.0001) %MON dynstat_sss_min              =   2.9900388305909E+01
(PID.TID 0000.0001) %MON dynstat_sss_mean             =   3.4848150210276E+01
(PID.TID 0000.0001) %MON dynstat_sss_sd               =   9.8338201357118E-01
(PID.TID 0000.0001) %MON dynstat_sss_del2             =   8.0736825982946E-03
(PID.TID 0000.0001) %MON forcing_qnet_max             =   2.9409475199382E+02
(PID.TID 0000.0001) %MON forcing_qnet_min             =  -1.6595054575602E+02
(PID.TID 0000.0001) %MON forcing_qnet_mean            =  -8.8284424875309E+00
(PID.TID 0000.0001) %MON forcing_qnet_sd              =   5.1556716411678E+01
(PID.TID 0000.0001) %MON forcing_qnet_del2            =   8.6047167969994E-01
(PID.TID 0000.0001) %MON forcing_qsw_max              =   0.0000000000000E+00
(PID.TID 0000.0001) %MON forcing_qsw_min              =   0.0000000000000E+00
(PID.TID 0000.0001) %MON forcing_qsw_mean             =   0.0000000000000E+00
(PID.TID 0000.0001) %MON forcing_qsw_sd               =   0.0000000000000E+00
(PID.TID 0000.0001) %MON forcing_qsw_del2             =   0.0000000000000E+00
(PID.TID 0000.0001) %MON forcing_empmr_max            =   6.9149116181203E-05
(PID.TID 0000.0001) %MON forcing_empmr_min            =  -8.0470160431408E-05
(PID.TID 0000.0001) %MON forcing_empmr_mean           =   6.4234056979919E-07
(PID.TID 0000.0001) %MON forcing_empmr_sd             =   2.6492034709442E-05
(PID.TID 0000.0001) %MON forcing_empmr_del2           =   3.5902970702507E-07
(PID.TID 0000.0001) %MON forcing_fu_max               =   3.4396148622036E-01
(PID.TID 0000.0001) %MON forcing_fu_min               =  -3.4395158787568E-01
(PID.TID 0000.0001) %MON forcing_fu_mean              =   1.9797332174179E-02
(PID.TID 0000.0001) %MON forcing_fu_sd                =   9.8445033933998E-02
(PID.TID 0000.0001) %MON forcing_fu_del2              =   7.6829958802129E-04
(PID.TID 0000.0001) %MON forcing_fv_max               =   1.5652424618602E-01
(PID.TID 0000.0001) %MON forcing_fv_min               =  -1.8284709403912E-01
(PID.TID 0000.0001) %MON forcing_fv_mean              =  -7.4565769902582E-03
(PID.TID 0000.0001) %MON forcing_fv_sd                =   4.1818730949016E-02
(PID.TID 0000.0001) %MON forcing_fv_del2              =   4.7523888340989E-04
(PID.TID 0000.0001) %MON trAdv_CFL_u_max              =   4.7459615888957E-02
(PID.TID 0000.0001) %MON trAdv_CFL_v_max              =   2.8959418083889E-02
(PID.TID 0000.0001) %MON trAdv_CFL_w_max              =   2.8742376747007E-02
(PID.TID 0000.0001) %MON advcfl_uvel_max              =   4.8323106786028E-02
(PID.TID 0000.0001) %MON advcfl_vvel_max              =   2.9226707700530E-02
(PID.TID 0000.0001) %MON advcfl_wvel_max              =   2.9229503664740E-02
(PID.TID 0000.0001) %MON advcfl_W_hf_max              =   3.5075404397688E-02
(PID.TID 0000.0001) %MON pe_b_mean                    =   5.4915068953145E-04
(PID.TID 0000.0001) %MON ke_max                       =   1.3169771173515E-02
(PID.TID 0000.0001) %MON ke_mean                      =   1.2622997423202E-04
(PID.TID 0000.0001) %MON ke_vol                       =   1.3226782436723E+18
(PID.TID 0000.0001) %MON vort_r_min                   =  -2.9165643453954E-07
(PID.TID 0000.0001) %MON vort_r_max                   =   4.0457929880905E-07
(PID.TID 0000.0001) %MON vort_a_mean                  =  -2.5274806898683E-05
(PID.TID 0000.0001) %MON vort_a_sd                    =   7.3604665362839E-05
(PID.TID 0000.0001) %MON vort_p_mean                  =  -3.1845655171036E-05
(PID.TID 0000.0001) %MON vort_p_sd                    =   1.3162485547645E-04
(PID.TID 0000.0001) %MON surfExpan_theta_mean         =   3.9665628028658E-07
(PID.TID 0000.0001) %MON surfExpan_salt_mean          =  -7.7823887432726E-08
(PID.TID 0000.0001) // =======================================================
(PID.TID 0000.0001) // End MONITOR dynamic field statistics
(PID.TID 0000.0001) // =======================================================
 EXTERNAL_FIELDS_LOAD,        69 : iP,iLd,i0,i1=    2    3    2    3 ; Wght=  0.2000000000  0.8000000000
 EXTERNAL_FIELDS_LOAD: (fu0,1),fu,fv= -1.4435E-02 -2.7199E-02 -2.4646E-02 -3.9896E-03
 EXTERNAL_FIELDS_LOAD: SST,SSS,Q,E-P= -2.5350E-01  3.4548E+01  2.2041E+02  8.9401E-06
DEBUG_STATS_RL:          Uvel (THERMODYNAMICS)  min= -1.22048183476526E-01
DEBUG_STATS_RL:          Uvel (THERMODYNAMICS)  max=  1.46196367584268E-01
DEBUG_STATS_RL:          Uvel (THERMODYNAMICS) mean=  5.98159004800596E-03
DEBUG_STATS_RL:          Uvel (THERMODYNAMICS) S.D.=  2.21485096244023E-02
DEBUG_STATS_RL:          Vvel (THERMODYNAMICS)  min= -8.94490164711446E-02
DEBUG_STATS_RL:          Vvel (THERMODYNAMICS)  max=  1.50432940580718E-01
DEBUG_STATS_RL:          Vvel (THERMODYNAMICS) mean=  4.52938700444546E-04
DEBUG_STATS_RL:          Vvel (THERMODYNAMICS) S.D.=  1.35516719139201E-02
DEBUG_STATS_RL:          Wvel (THERMODYNAMICS)  min= -8.40090084860433E-05
DEBUG_STATS_RL:          Wvel (THERMODYNAMICS)  max=  8.48430841115448E-05
DEBUG_STATS_RL:          Wvel (THERMODYNAMICS) mean= -1.23234154278354E-07
DEBUG_STATS_RL:          Wvel (THERMODYNAMICS) S.D.=  9.47732560090395E-06
DEBUG_STATS_RL:         Theta (THERMODYNAMICS)  min= -1.95267113089790E+00
DEBUG_STATS_RL:         Theta (THERMODYNAMICS)  max=  3.07856906177056E+01
DEBUG_STATS_RL:         Theta (THERMODYNAMICS) mean=  3.23080961189334E+00
DEBUG_STATS_RL:         Theta (THERMODYNAMICS) S.D.=  5.88188774417771E+00
DEBUG_STATS_RL:          Salt (THERMODYNAMICS)  min=  9.99999999999997E-03
DEBUG_STATS_RL:          Salt (THERMODYNAMICS)  max=  3.74767720259224E+01
DEBUG_STATS_RL:          Salt (THERMODYNAMICS) mean=  1.88547333027574E+01
DEBUG_STATS_RL:          Salt (THERMODYNAMICS) S.D.=  1.73002772120444E+01
DEBUG_STATS_RL:         GtNm1 (THERMODYNAMICS)  min= -4.79827455708081E-06
DEBUG_STATS_RL:         GtNm1 (THERMODYNAMICS)  max=  2.51011815136451E-06
DEBUG_STATS_RL:         GtNm1 (THERMODYNAMICS) mean=  3.21870062611710E-09
DEBUG_STATS_RL:         GtNm1 (THERMODYNAMICS) S.D.=  1.56627767617751E-07
DEBUG_STATS_RL:         GsNm1 (THERMODYNAMICS)  min= -5.49179602843818E-07
DEBUG_STATS_RL:         GsNm1 (THERMODYNAMICS)  max=  3.70586744546414E-07
DEBUG_STATS_RL:         GsNm1 (THERMODYNAMICS) mean= -1.63808870512433E-10
DEBUG_STATS_RL:         GsNm1 (THERMODYNAMICS) S.D.=  1.49255200157933E-08
DEBUG_STATS_RL:                EtaN (DYNAMICS)  min= -1.88620973512181E+00
DEBUG_STATS_RL:                EtaN (DYNAMICS)  max=  9.35011243789053E-01
DEBUG_STATS_RL:                EtaN (DYNAMICS) mean= -1.89335968641635E-01
DEBUG_STATS_RL:                EtaN (DYNAMICS) S.D.=  7.51659613818142E-01
DEBUG_STATS_RL:                Uvel (DYNAMICS)  min= -1.22048183476526E-01
DEBUG_STATS_RL:                Uvel (DYNAMICS)  max=  1.46196367584268E-01
DEBUG_STATS_RL:                Uvel (DYNAMICS) mean=  5.98159004800596E-03
DEBUG_STATS_RL:                Uvel (DYNAMICS) S.D.=  2.21485096244023E-02
DEBUG_STATS_RL:                Vvel (DYNAMICS)  min= -8.94490164711446E-02
DEBUG_STATS_RL:                Vvel (DYNAMICS)  max=  1.50432940580718E-01
DEBUG_STATS_RL:                Vvel (DYNAMICS) mean=  4.52938700444546E-04
DEBUG_STATS_RL:                Vvel (DYNAMICS) S.D.=  1.35516719139201E-02
DEBUG_STATS_RL:                Wvel (DYNAMICS)  min= -8.40090084860433E-05
DEBUG_STATS_RL:                Wvel (DYNAMICS)  max=  8.48430841115448E-05
DEBUG_STATS_RL:                Wvel (DYNAMICS) mean= -1.23234154278354E-07
DEBUG_STATS_RL:                Wvel (DYNAMICS) S.D.=  9.47732560090395E-06
DEBUG_STATS_RL:               Theta (DYNAMICS)  min= -1.95267113089790E+00
DEBUG_STATS_RL:               Theta (DYNAMICS)  max=  3.07856906177056E+01
DEBUG_STATS_RL:               Theta (DYNAMICS) mean=  3.23080961189334E+00
DEBUG_STATS_RL:               Theta (DYNAMICS) S.D.=  5.88188774417771E+00
DEBUG_STATS_RL:                Salt (DYNAMICS)  min=  9.99999999999997E-03
DEBUG_STATS_RL:                Salt (DYNAMICS)  max=  3.74767720259224E+01
DEBUG_STATS_RL:                Salt (DYNAMICS) mean=  1.88547333027574E+01
DEBUG_STATS_RL:                Salt (DYNAMICS) S.D.=  1.73002772120444E+01
DEBUG_STATS_RL:                  Gu (DYNAMICS)  min= -1.20525397168681E-01
DEBUG_STATS_RL:                  Gu (DYNAMICS)  max=  1.46313837609502E-01
DEBUG_STATS_RL:                  Gu (DYNAMICS) mean=  5.95076775456836E-03
DEBUG_STATS_RL:                  Gu (DYNAMICS) S.D.=  2.26979027536611E-02
DEBUG_STATS_RL:                  Gv (DYNAMICS)  min= -9.59569986388183E-02
DEBUG_STATS_RL:                  Gv (DYNAMICS)  max=  1.50925463132865E-01
DEBUG_STATS_RL:                  Gv (DYNAMICS) mean=  3.19534262464267E-03
DEBUG_STATS_RL:                  Gv (DYNAMICS) S.D.=  1.46956049439062E-02
DEBUG_STATS_RL:               GuNm1 (DYNAMICS)  min= -1.01715048863315E-05
DEBUG_STATS_RL:               GuNm1 (DYNAMICS)  max=  9.31395064827037E-06
DEBUG_STATS_RL:               GuNm1 (DYNAMICS) mean=  6.32019310330146E-09
DEBUG_STATS_RL:               GuNm1 (DYNAMICS) S.D.=  1.20557809077450E-06
DEBUG_STATS_RL:               GvNm1 (DYNAMICS)  min= -1.01693889364265E-05
DEBUG_STATS_RL:               GvNm1 (DYNAMICS)  max=  1.56360277946769E-05
DEBUG_STATS_RL:               GvNm1 (DYNAMICS) mean=  7.38306407906283E-07
DEBUG_STATS_RL:               GvNm1 (DYNAMICS) S.D.=  2.63550566281544E-06
DEBUG_STATS_RL:               GtNm1 (DYNAMICS)  min= -4.79827455708081E-06
DEBUG_STATS_RL:               GtNm1 (DYNAMICS)  max=  2.51011815136451E-06
DEBUG_STATS_RL:               GtNm1 (DYNAMICS) mean=  3.21870062611710E-09
DEBUG_STATS_RL:               GtNm1 (DYNAMICS) S.D.=  1.56627767617751E-07
DEBUG_STATS_RL:               GsNm1 (DYNAMICS)  min= -5.49179602843818E-07
DEBUG_STATS_RL:               GsNm1 (DYNAMICS)  max=  3.70586744546414E-07
DEBUG_STATS_RL:               GsNm1 (DYNAMICS) mean= -1.63808870512433E-10
DEBUG_STATS_RL:               GsNm1 (DYNAMICS) S.D.=  1.49255200157933E-08
DEBUG_STATS_RL:    cg2d_b (SOLVE_FOR_PRESSURE)  min= -1.89996293910489E+04
DEBUG_STATS_RL:    cg2d_b (SOLVE_FOR_PRESSURE)  max=  2.46819095440437E+04
DEBUG_STATS_RL:    cg2d_b (SOLVE_FOR_PRESSURE) mean=  4.82566368883236E+00
DEBUG_STATS_RL:    cg2d_b (SOLVE_FOR_PRESSURE) S.D.=  3.92862682561666E+03
 cg2d: Sum(rhs),rhsMax =   4.52615362669270E-01  1.62117390283202E+00
(PID.TID 0000.0001)  cg2d: iter=     1 ; resid.=  1.00231998382942E-01
(PID.TID 0000.0001)  cg2d: iter=     2 ; resid.=  8.67042351329493E-02
(PID.TID 0000.0001)  cg2d: iter=     3 ; resid.=  8.28564703842962E-02
(PID.TID 0000.0001)  cg2d: iter=     4 ; resid.=  7.60094709058786E-02
(PID.TID 0000.0001)  cg2d: iter=     5 ; resid.=  7.24924604521035E-02
(PID.TID 0000.0001)  cg2d: iter=     6 ; resid.=  6.72931991796339E-02
(PID.TID 0000.0001)  cg2d: iter=     7 ; resid.=  5.47721456683344E-02
(PID.TID 0000.0001)  cg2d: iter=     8 ; resid.=  4.04529161929598E-02
(PID.TID 0000.0001)  cg2d: iter=     9 ; resid.=  3.13403247337639E-02
(PID.TID 0000.0001)  cg2d: iter=    10 ; resid.=  2.21816796091901E-02
(PID.TID 0000.0001)  cg2d: iter=    11 ; resid.=  1.90298242630524E-02
(PID.TID 0000.0001)  cg2d: iter=    12 ; resid.=  1.71103370890084E-02
(PID.TID 0000.0001)  cg2d: iter=    13 ; resid.=  1.42477128288059E-02
(PID.TID 0000.0001)  cg2d: iter=    14 ; resid.=  1.21731834194970E-02
(PID.TID 0000.0001)  cg2d: iter=    15 ; resid.=  9.87385728451754E-03
(PID.TID 0000.0001)  cg2d: iter=    16 ; resid.=  8.33043657816249E-03
(PID.TID 0000.0001)  cg2d: iter=    17 ; resid.=  7.47729296238659E-03
(PID.TID 0000.0001)  cg2d: iter=    18 ; resid.=  6.40821462671067E-03
(PID.TID 0000.0001)  cg2d: iter=    19 ; resid.=  4.93962573389810E-03
(PID.TID 0000.0001)  cg2d: iter=    20 ; resid.=  3.69040060995381E-03
(PID.TID 0000.0001)  cg2d: iter=    21 ; resid.=  3.24074306328868E-03
(PID.TID 0000.0001)  cg2d: iter=    22 ; resid.=  2.93651170699824E-03
(PID.TID 0000.0001)  cg2d: iter=    23 ; resid.=  2.52222552750300E-03
(PID.TID 0000.0001)  cg2d: iter=    24 ; resid.=  2.10548413328972E-03
(PID.TID 0000.0001)  cg2d: iter=    25 ; resid.=  1.72687288751567E-03
(PID.TID 0000.0001)  cg2d: iter=    26 ; resid.=  1.33939193537504E-03
(PID.TID 0000.0001)  cg2d: iter=    27 ; resid.=  1.03433573885467E-03
(PID.TID 0000.0001)  cg2d: iter=    28 ; resid.=  7.89153855987834E-04
(PID.TID 0000.0001)  cg2d: iter=    29 ; resid.=  6.36970629467129E-04
(PID.TID 0000.0001)  cg2d: iter=    30 ; resid.=  5.05322861483054E-04
(PID.TID 0000.0001)  cg2d: iter=    31 ; resid.=  4.29310035133145E-04
(PID.TID 0000.0001)  cg2d: iter=    32 ; resid.=  3.20262704502899E-04
(PID.TID 0000.0001)  cg2d: iter=    33 ; resid.=  2.51928472894967E-04
(PID.TID 0000.0001)  cg2d: iter=    34 ; resid.=  2.20022187197175E-04
(PID.TID 0000.0001)  cg2d: iter=    35 ; resid.=  1.92642448330205E-04
(PID.TID 0000.0001)  cg2d: iter=    36 ; resid.=  1.65971240639406E-04
(PID.TID 0000.0001)  cg2d: iter=    37 ; resid.=  1.28894090702906E-04
(PID.TID 0000.0001)  cg2d: iter=    38 ; resid.=  1.10552083432192E-04
(PID.TID 0000.0001)  cg2d: iter=    39 ; resid.=  9.50042000459941E-05
(PID.TID 0000.0001)  cg2d: iter=    40 ; resid.=  7.95456049683926E-05
(PID.TID 0000.0001)  cg2d: iter=    41 ; resid.=  6.44292484862973E-05
(PID.TID 0000.0001)  cg2d: iter=    42 ; resid.=  5.52836836127171E-05
(PID.TID 0000.0001)  cg2d: iter=    43 ; resid.=  4.36192627850563E-05
(PID.TID 0000.0001)  cg2d: iter=    44 ; resid.=  3.34449026494771E-05
(PID.TID 0000.0001)  cg2d: iter=    45 ; resid.=  2.95974173661963E-05
(PID.TID 0000.0001)  cg2d: iter=    46 ; resid.=  2.28592117203249E-05
(PID.TID 0000.0001)  cg2d: iter=    47 ; resid.=  1.75059984330839E-05
(PID.TID 0000.0001)  cg2d: iter=    48 ; resid.=  1.40411026572485E-05
(PID.TID 0000.0001)  cg2d: iter=    49 ; resid.=  1.14587970176888E-05
(PID.TID 0000.0001)  cg2d: iter=    50 ; resid.=  1.00224656302575E-05
(PID.TID 0000.0001)  cg2d: iter=    51 ; resid.=  8.89410151473160E-06
(PID.TID 0000.0001)  cg2d: iter=    52 ; resid.=  7.79069409692895E-06
(PID.TID 0000.0001)  cg2d: iter=    53 ; resid.=  6.70513392968018E-06
(PID.TID 0000.0001)  cg2d: iter=    54 ; resid.=  5.58290491391254E-06
(PID.TID 0000.0001)  cg2d: iter=    55 ; resid.=  4.72514512283532E-06
(PID.TID 0000.0001)  cg2d: iter=    56 ; resid.=  3.73256133323383E-06
(PID.TID 0000.0001)  cg2d: iter=    57 ; resid.=  3.26636686956281E-06
(PID.TID 0000.0001)  cg2d: iter=    58 ; resid.=  2.73667222815510E-06
(PID.TID 0000.0001)  cg2d: iter=    59 ; resid.=  2.13293440725797E-06
(PID.TID 0000.0001)  cg2d: iter=    60 ; resid.=  1.67199371152785E-06
(PID.TID 0000.0001)  cg2d: iter=    61 ; resid.=  1.38453829643764E-06
(PID.TID 0000.0001)  cg2d: iter=    62 ; resid.=  1.19725664986306E-06
(PID.TID 0000.0001)  cg2d: iter=    63 ; resid.=  1.03690308682312E-06
(PID.TID 0000.0001)  cg2d: iter=    64 ; resid.=  8.68017029650479E-07
(PID.TID 0000.0001)  cg2d: iter=    65 ; resid.=  6.74367353159800E-07
(PID.TID 0000.0001)  cg2d: iter=    66 ; resid.=  5.47310178912423E-07
(PID.TID 0000.0001)  cg2d: iter=    67 ; resid.=  4.32816802629571E-07
(PID.TID 0000.0001)  cg2d: iter=    68 ; resid.=  4.05012273660831E-07
(PID.TID 0000.0001)  cg2d: iter=    69 ; resid.=  3.60395329987389E-07
(PID.TID 0000.0001)  cg2d: iter=    70 ; resid.=  3.07626438394867E-07
(PID.TID 0000.0001)  cg2d: iter=    71 ; resid.=  2.52507584457721E-07
(PID.TID 0000.0001)  cg2d: iter=    72 ; resid.=  2.13450978079240E-07
(PID.TID 0000.0001)  cg2d: iter=    73 ; resid.=  1.99624609722929E-07
(PID.TID 0000.0001)  cg2d: iter=    74 ; resid.=  1.79789862072275E-07
(PID.TID 0000.0001)  cg2d: iter=    75 ; resid.=  1.55002087474668E-07
(PID.TID 0000.0001)  cg2d: iter=    76 ; resid.=  1.29575669152399E-07
(PID.TID 0000.0001)  cg2d: iter=    77 ; resid.=  1.05998180843646E-07
(PID.TID 0000.0001)  cg2d: iter=    78 ; resid.=  8.21827690859470E-08
(PID.TID 0000.0001)  cg2d: iter=    79 ; resid.=  6.78052655922086E-08
(PID.TID 0000.0001)  cg2d: iter=    80 ; resid.=  5.15333295183895E-08
(PID.TID 0000.0001)  cg2d: iter=    81 ; resid.=  3.89998371770036E-08
(PID.TID 0000.0001)  cg2d: iter=    82 ; resid.=  2.74599020292848E-08
(PID.TID 0000.0001)  cg2d: iter=    83 ; resid.=  1.97473934293442E-08
(PID.TID 0000.0001)  cg2d: iter=    84 ; resid.=  1.46528041460682E-08
(PID.TID 0000.0001)  cg2d: iter=    85 ; resid.=  1.02610027653342E-08
(PID.TID 0000.0001)  cg2d: iter=    86 ; resid.=  7.94800188573405E-09
(PID.TID 0000.0001)  cg2d: iter=    87 ; resid.=  6.32076580531185E-09
(PID.TID 0000.0001)  cg2d: iter=    88 ; resid.=  4.89050855020280E-09
(PID.TID 0000.0001)  cg2d: iter=    89 ; resid.=  4.46146664173226E-09
(PID.TID 0000.0001)  cg2d: iter=    90 ; resid.=  4.03475280459648E-09
(PID.TID 0000.0001)  cg2d: iter=    91 ; resid.=  3.35387363437486E-09
(PID.TID 0000.0001)  cg2d: iter=    92 ; resid.=  2.65989533043038E-09
(PID.TID 0000.0001)  cg2d: iter=    93 ; resid.=  2.25618308386234E-09
(PID.TID 0000.0001)  cg2d: iter=    94 ; resid.=  1.76117390360752E-09
(PID.TID 0000.0001)  cg2d: iter=    95 ; resid.=  1.38383962820095E-09
(PID.TID 0000.0001)  cg2d: iter=    96 ; resid.=  1.08448539559464E-09
(PID.TID 0000.0001)  cg2d: iter=    97 ; resid.=  8.13830365837466E-10
(PID.TID 0000.0001)  cg2d: iter=    98 ; resid.=  6.48701147706172E-10
(PID.TID 0000.0001)  cg2d: iter=    99 ; resid.=  5.44983730966034E-10
(PID.TID 0000.0001)  cg2d: iter=   100 ; resid.=  5.22577478990291E-10
(PID.TID 0000.0001)  cg2d: iter=   101 ; resid.=  4.06529955610682E-10
(PID.TID 0000.0001)  cg2d: iter=   102 ; resid.=  3.20127696214994E-10
(PID.TID 0000.0001)  cg2d: iter=   103 ; resid.=  2.57169158564043E-10
(PID.TID 0000.0001)  cg2d: iter=   104 ; resid.=  2.01136064027407E-10
(PID.TID 0000.0001)  cg2d: iter=   105 ; resid.=  1.57694092748895E-10
(PID.TID 0000.0001)  cg2d: iter=   106 ; resid.=  1.28431912322785E-10
(PID.TID 0000.0001)  cg2d: iter=   107 ; resid.=  9.19807225758548E-11
(PID.TID 0000.0001)  cg2d: iter=   108 ; resid.=  6.93359044831081E-11
(PID.TID 0000.0001)  cg2d: iter=   109 ; resid.=  5.34377088651994E-11
(PID.TID 0000.0001)  cg2d: iter=   110 ; resid.=  3.73723380274617E-11
(PID.TID 0000.0001)  cg2d: iter=   111 ; resid.=  2.92810626037537E-11
(PID.TID 0000.0001)  cg2d: iter=   112 ; resid.=  2.32524655247663E-11
(PID.TID 0000.0001)  cg2d: iter=   113 ; resid.=  1.78995896042369E-11
(PID.TID 0000.0001)  cg2d: iter=   114 ; resid.=  1.30560340955565E-11
(PID.TID 0000.0001)  cg2d: iter=   115 ; resid.=  1.02201077319473E-11
(PID.TID 0000.0001)  cg2d: iter=   116 ; resid.=  7.99210077026817E-12
(PID.TID 0000.0001)  cg2d: iter=   117 ; resid.=  6.57784613077354E-12
(PID.TID 0000.0001)  cg2d: iter=   118 ; resid.=  5.22775881437203E-12
(PID.TID 0000.0001)  cg2d: iter=   119 ; resid.=  3.86715192134649E-12
(PID.TID 0000.0001)  cg2d: iter=   120 ; resid.=  2.70538780389457E-12
(PID.TID 0000.0001)  cg2d: iter=   121 ; resid.=  1.86907175285411E-12
(PID.TID 0000.0001)  cg2d: iter=   122 ; resid.=  1.39339789368429E-12
(PID.TID 0000.0001)  cg2d: iter=   123 ; resid.=  1.04407575613668E-12
(PID.TID 0000.0001)  cg2d: iter=   124 ; resid.=  8.05309867048660E-13
(PID.TID 0000.0001)  cg2d: iter=   125 ; resid.=  6.49388347235412E-13
(PID.TID 0000.0001)  cg2d: iter=   126 ; resid.=  4.69566630338054E-13
(PID.TID 0000.0001)  cg2d: iter=   127 ; resid.=  3.24158901413235E-13
(PID.TID 0000.0001)  cg2d: iter=   128 ; resid.=  2.19436864764616E-13
(PID.TID 0000.0001)  cg2d: iter=   129 ; resid.=  1.52548051633358E-13
(PID.TID 0000.0001)  cg2d: iter=   130 ; resid.=  1.03210332990813E-13
(PID.TID 0000.0001)  cg2d: iter=   131 ; resid.=  7.28901676650190E-14
DEBUG_STATS_RL:    cg2d_x (SOLVE_FOR_PRESSURE)  min= -1.87039150754141E+01
DEBUG_STATS_RL:    cg2d_x (SOLVE_FOR_PRESSURE)  max=  9.41709953031064E+00
DEBUG_STATS_RL:    cg2d_x (SOLVE_FOR_PRESSURE) mean= -1.87378733615962E+00
DEBUG_STATS_RL:    cg2d_x (SOLVE_FOR_PRESSURE) S.D.=  7.45186925670793E+00
(PID.TID 0000.0001)      cg2d_init_res =   2.66225715694816E-01
(PID.TID 0000.0001)      cg2d_iters(min,last) =      -1     131
(PID.TID 0000.0001)      cg2d_last_res =   7.28901676650190E-14
(PID.TID 0000.0001) // =======================================================
(PID.TID 0000.0001) // Begin MONITOR dynamic field statistics
(PID.TID 0000.0001) // =======================================================
(PID.TID 0000.0001) %MON time_tsnumber                =                    70
(PID.TID 0000.0001) %MON time_secondsf                =   6.0480000000000E+06
(PID.TID 0000.0001) %MON dynstat_eta_max              =   9.5994898372178E-01
(PID.TID 0000.0001) %MON dynstat_eta_min              =  -1.9066172350067E+00
(PID.TID 0000.0001) %MON dynstat_eta_mean             =  -5.0349816967536E-03
(PID.TID 0000.0001) %MON dynstat_eta_sd               =   6.6375220818805E-01
(PID.TID 0000.0001) %MON dynstat_eta_del2             =   2.4096262092485E-03
(PID.TID 0000.0001) %MON dynstat_uvel_max             =   1.4781589593353E-01
(PID.TID 0000.0001) %MON dynstat_uvel_min             =  -1.2064673319848E-01
(PID.TID 0000.0001) %MON dynstat_uvel_mean            =   2.3690629252284E-03
(PID.TID 0000.0001) %MON dynstat_uvel_sd              =   1.4282438271408E-02
(PID.TID 0000.0001) %MON dynstat_uvel_del2            =   8.8023041187574E-05
(PID.TID 0000.0001) %MON dynstat_vvel_max             =   1.5080751660788E-01
(PID.TID 0000.0001) %MON dynstat_vvel_min             =  -8.5516102850438E-02
(PID.TID 0000.0001) %MON dynstat_vvel_mean            =  -3.5570485894215E-05
(PID.TID 0000.0001) %MON dynstat_vvel_sd              =   8.4281186006796E-03
(PID.TID 0000.0001) %MON dynstat_vvel_del2            =   7.3932403038373E-05
(PID.TID 0000.0001) %MON dynstat_wvel_max             =   9.5189323874610E-05
(PID.TID 0000.0001) %MON dynstat_wvel_min             =  -8.4237617758610E-05
(PID.TID 0000.0001) %MON dynstat_wvel_mean            =   6.1649431258360E-23
(PID.TID 0000.0001) %MON dynstat_wvel_sd              =   1.0759378578688E-05
(PID.TID 0000.0001) %MON dynstat_wvel_del2            =   1.0720286054450E-07
(PID.TID 0000.0001) %MON dynstat_theta_max            =   3.0785690617706E+01
(PID.TID 0000.0001) %MON dynstat_theta_min            =  -1.9526711308979E+00
(PID.TID 0000.0001) %MON dynstat_theta_mean           =   3.6337174425250E+00
(PID.TID 0000.0001) %MON dynstat_theta_sd             =   4.4256584028740E+00
(PID.TID 0000.0001) %MON dynstat_theta_del2           =   4.8774658205123E-03
(PID.TID 0000.0001) %MON dynstat_salt_max             =   3.7476772025922E+01
(PID.TID 0000.0001) %MON dynstat_salt_min             =   2.9901944513745E+01
(PID.TID 0000.0001) %MON dynstat_salt_mean            =   3.4728002351488E+01
(PID.TID 0000.0001) %MON dynstat_salt_sd              =   2.9651706263138E-01
(PID.TID 0000.0001) %MON dynstat_salt_del2            =   9.8916401265454E-04
(PID.TID 0000.0001) %MON dynstat_sst_max              =   3.0785690617706E+01
(PID.TID 0000.0001) %MON dynstat_sst_min              =  -1.9526711308979E+00
(PID.TID 0000.0001) %MON dynstat_sst_mean             =   1.9045358963029E+01
(PID.TID 0000.0001) %MON dynstat_sst_sd               =   9.1103611706308E+00
(PID.TID 0000.0001) %MON dynstat_sst_del2             =   2.8364708854103E-02
(PID.TID 0000.0001) %MON dynstat_sss_max              =   3.7463516753953E+01
(PID.TID 0000.0001) %MON dynstat_sss_min              =   2.9901944513745E+01
(PID.TID 0000.0001) %MON dynstat_sss_mean             =   3.4848068208216E+01
(PID.TID 0000.0001) %MON dynstat_sss_sd               =   9.8368201270131E-01
(PID.TID 0000.0001) %MON dynstat_sss_del2             =   8.0837942363395E-03
(PID.TID 0000.0001) %MON forcing_qnet_max             =   2.9129660034180E+02
(PID.TID 0000.0001) %MON forcing_qnet_min             =  -1.6565126647949E+02
(PID.TID 0000.0001) %MON forcing_qnet_mean            =  -8.6051029879044E+00
(PID.TID 0000.0001) %MON forcing_qnet_sd              =   5.0688573492058E+01
(PID.TID 0000.0001) %MON forcing_qnet_del2            =   8.5873863831928E-01
(PID.TID 0000.0001) %MON forcing_qsw_max              =   0.0000000000000E+00
(PID.TID 0000.0001) %MON forcing_qsw_min              =   0.0000000000000E+00
(PID.TID 0000.0001) %MON forcing_qsw_mean             =   0.0000000000000E+00
(PID.TID 0000.0001) %MON forcing_qsw_sd               =   0.0000000000000E+00
(PID.TID 0000.0001) %MON forcing_qsw_del2             =   0.0000000000000E+00
(PID.TID 0000.0001) %MON forcing_empmr_max            =   6.9143359837653E-05
(PID.TID 0000.0001) %MON forcing_empmr_min            =  -8.0869340024492E-05
(PID.TID 0000.0001) %MON forcing_empmr_mean           =   6.2925063892483E-07
(PID.TID 0000.0001) %MON forcing_empmr_sd             =   2.6455536925131E-05
(PID.TID 0000.0001) %MON forcing_empmr_del2           =   3.5991612840969E-07
(PID.TID 0000.0001) %MON forcing_fu_max               =   3.4590290188789E-01
(PID.TID 0000.0001) %MON forcing_fu_min               =  -3.5032370686531E-01
(PID.TID 0000.0001) %MON forcing_fu_mean              =   1.9891531763637E-02
(PID.TID 0000.0001) %MON forcing_fu_sd                =   9.8919389593516E-02
(PID.TID 0000.0001) %MON forcing_fu_del2              =   7.7806315234272E-04
(PID.TID 0000.0001) %MON forcing_fv_max               =   1.6034940332174E-01
(PID.TID 0000.0001) %MON forcing_fv_min               =  -1.8434488475323E-01
(PID.TID 0000.0001) %MON forcing_fv_mean              =  -7.4670053402277E-03
(PID.TID 0000.0001) %MON forcing_fv_sd                =   4.1889461618814E-02
(PID.TID 0000.0001) %MON forcing_fv_del2              =   4.7843997600298E-04
(PID.TID 0000.0001) %MON trAdv_CFL_u_max              =   4.8332921554629E-02
(PID.TID 0000.0001) %MON trAdv_CFL_v_max              =   2.9107608297240E-02
(PID.TID 0000.0001) %MON trAdv_CFL_w_max              =   2.9856990645692E-02
(PID.TID 0000.0001) %MON advcfl_uvel_max              =   4.8858418590677E-02
(PID.TID 0000.0001) %MON advcfl_vvel_max              =   2.9299481815131E-02
(PID.TID 0000.0001) %MON advcfl_wvel_max              =   2.9705207309590E-02
(PID.TID 0000.0001) %MON advcfl_W_hf_max              =   3.5646248771508E-02
(PID.TID 0000.0001) %MON pe_b_mean                    =   5.6379101116155E-04
(PID.TID 0000.0001) %MON ke_max                       =   1.3340459841109E-02
(PID.TID 0000.0001) %MON ke_mean                      =   1.2711515781121E-04
(PID.TID 0000.0001) %MON ke_vol                       =   1.3226782436723E+18
(PID.TID 0000.0001) %MON vort_r_min                   =  -2.9811546730373E-07
(PID.TID 0000.0001) %MON vort_r_max                   =   4.0425409508962E-07
(PID.TID 0000.0001) %MON vort_a_mean                  =  -2.5274806848601E-05
(PID.TID 0000.0001) %MON vort_a_sd                    =   7.3604669283965E-05
(PID.TID 0000.0001) %MON vort_p_mean                  =  -3.1845655107934E-05
(PID.TID 0000.0001) %MON vort_p_sd                    =   1.3162490842619E-04
(PID.TID 0000.0001) %MON surfExpan_theta_mean         =   3.9577029340467E-07
(PID.TID 0000.0001) %MON surfExpan_salt_mean          =  -7.4179137806970E-08
(PID.TID 0000.0001) // =======================================================
(PID.TID 0000.0001) // End MONITOR dynamic field statistics
(PID.TID 0000.0001) // =======================================================
(PID.TID 0000.0001) // =======================================================
(PID.TID 0000.0001) // Field Current uVel   at iteration         70
(PID.TID 0000.0001) // CMIN =         -1.206467331984846E-01
(PID.TID 0000.0001) // CMAX =          1.478158959335334E-01
(PID.TID 0000.0001) // CINT =          9.943060338222891E-03
(PID.TID 0000.0001) // SYMBOLS (CMIN->CMAX): -abcdefghijklmnopqrstuvwxyz+
(PID.TID 0000.0001) //                  0.0: .
(PID.TID 0000.0001) // RANGE I (Lo:Hi:Step):(     1:    90:     1)
(PID.TID 0000.0001) // RANGE J (Lo:Hi:Step):(    40:     1:    -1)
(PID.TID 0000.0001) // RANGE K (Lo:Hi:Step):(   1:   1:   1)
(PID.TID 0000.0001) // =======================================================
(PID.TID 0000.0001) K =   1
(PID.TID 0000.0001)                I=10      I=20      I=30      I=40      I=50      I=60      I=70      I=80      I=90
(PID.TID 0000.0001) |--J--|123456789|123456789|123456789|123456789|123456789|123456789|123456789|123456789|123456789|
(PID.TID 0000.0001)     40 lllkl..llklllllllll...................................................................lkkl
(PID.TID 0000.0001)     39 mmnmllllllllll....l......................................................lll.........kjkkl
(PID.TID 0000.0001)     38 mnonmmmmmmmmm............................................................llll.......jjjklm
(PID.TID 0000.0001)     37 nnn...................................................................l....kl....jkjj..lmm
(PID.TID 0000.0001)     36 on..........................................kkl.....................lllmmmljik..jjkkllmlmo
(PID.TID 0000.0001)     35 nm..................................lll...kjijjl....klll............ll.....ljkljjlnnnnnoon
(PID.TID 0000.0001)     34 ....................................lkk..kkjjjkl..mkkllll...................nmmmnppqqqpn..
(PID.TID 0000.0001)     33 .....................................kkkkkkllmmmmnnnnnnmmll..................noprsssrqpml.
(PID.TID 0000.0001)     32 .....................................jklllmnopppoooooonnnmm.................noppqrqqponnn.
(PID.TID 0000.0001)     31 .....................................llmnnnopppppoonnnnnnnm...............mrtqqqpponmmmm..
(PID.TID 0000.0001)     30 ....................................pppoopppppppppooooonnmm.............oopqqqqppponmllk..
(PID.TID 0000.0001)     29 ..................................prtsrrrrrrsrqqppppppponmll............srqqpoonnmmlkkjj..
(PID.TID 0000.0001)     28 ................................oqsssrqrrrrrsrqponoopponmllll..........qrpooonmllkjjiijk..
(PID.TID 0000.0001)     27 ...............l...............moopponnooppooonnmlllmmmlkkkkkl....llm..ppoonnmlkjiiihi....
(PID.TID 0000.0001)     26 ...............ml............iikmmlllkkklllllkkkjjkllllkkklkkmmm..llkkmnnnnmmmllkkkjjj....
(PID.TID 0000.0001)     25 ...............onn....ml....mllmpommlkjjkkkkkkkkkkklmlmmnnnnmnnnm....kllonooooooonnnml....
(PID.TID 0000.0001)     24 .............onnnnn..nml....no..nnllkjjjkkjjjkkllmmmnmmnnmnmmmmlmlmm..mkllnooooooomnno....
(PID.TID 0000.0001)     23 .............kghhik..jhi....km...ggfeedefffeefgiijijkkkklklkjihhihijl.....lkghijijikmo....
(PID.TID 0000.0001)     22 l............c-a-acbcddg....l..ebcedaa-bccbbcddggghhjkmnonmkkjihihhhhi.......jhecdfikoopnl
(PID.TID 0000.0001)     21 mmn.........eccb--aacfijn......ffmlhffdefggeffghhghghjklnlkjklllmlkihi.........hcbfiknooon
(PID.TID 0000.0001)     20 lln........jhjjjiihfilomm.........mlmkhikmnlmlkkkjigghhhihffhjjklkjhgi..........gcfhhjkjjk
(PID.TID 0000.0001)     19 kmn........igiijmnljjkmlklm....kn......mnpqqqponmlljhhhggfdcddddffeeeg............hgfggggh
(PID.TID 0000.0001)     18 iln........hedefhikjjkjjjklkjjjjl....noonopqpponmllljiihhggeedddeedddej...........kigggggg
(PID.TID 0000.0001)     17 ijl..........gghigjjlnkjkllkjjj......mmmllmnnnnmlkjkkjjjiijihhhhghgghhi..........mmkihghih
(PID.TID 0000.0001)     16 kkk.......l..kiiijiillmkklmmlk........kkkklmmlmmlkjjjjkkjjjjkjjkkkjkkllk.........mlkjiijjj
(PID.TID 0000.0001)     15 iihi.....ln..nmlmmjkllmkjkmno..........lklmmmnooomllmlmlkkkkkkklllklllkkk.......mmllkjjijj
(PID.TID 0000.0001)     14 hgef.....lkknpppppoonmnlkkkkm..........mlmnoopqqqqpqqppppoonmlllllkkkkiij......mnnnnnmljji
(PID.TID 0000.0001)     13 jigf.....llmnoppppqpnmnmlkjij..........nooopqqqppqqqrrrqrrqpponmmmmllkjij.....klnnoopponmk
(PID.TID 0000.0001)     12 lljiihgijmnnnnmnnnnnnnnnmkkjjkllll.....mnooooooooooooopooppoponmlmmmllkj......lmmnooppponm
(PID.TID 0000.0001)     11 nnmllkkmoqqqqqpooopooooonmmlllmmmlm...llmmn..oonmmmmmmmmmmmmmmmllmmmmllk.....lmoooopppponn
(PID.TID 0000.0001)     10 qppooqrssuvwvvvutuutsqqqqqppooonmmll..mmmmm..qqnmlllmmmllllmmmmmnnnnnnnm...mmnopqqqrssrrqq
(PID.TID 0000.0001)      9 uuuuuuvvvwyxvvwwvwxwvvuuvvuttssrqqpppopoon..prqoooonnooooooooooppppoooom..oppqrssttuuvvvvv
(PID.TID 0000.0001)      8 vwxyxwvvvwwvvuuuuuuuwxxxwxxxwvvvwwxyxwwvtstvtssstttttttttttsrrrrrrrrqqqo..npoqrsrsuuuvwwwv
(PID.TID 0000.0001)      7 tuvvutsstttttsssssrrstttuuuuuuvwwxyz+zzyyxxvttuuuvwxyyyxwwvttttttttttttvurqqqrrqppqrrsssss
(PID.TID 0000.0001)      6 pppooppqqqqqpppppqpoooopqrrrsstttuutuuvwxyxwvuuuuvvwxxyxwvtssstttuuuvvvvvvvvvusrpooopppppp
(PID.TID 0000.0001)      5 llllmnnoonnnmmmmnnnnmmmmmmnooppppoppopqrtuvuutttttttssrssrrrrrsssssstttttrqqrqoonnnmnnnmml
(PID.TID 0000.0001)      4 jjjjkllllllllllllllllllkjjklllllllmmmmmmnoopppqpppoonnnnnopppppppppppppoom...llllllllllkkk
(PID.TID 0000.0001)      3 kkjkkkkkll.............................klllkllmmmllkkkklllmmmmmmmmmmllmll...lkkkkkkkkkkkkk
(PID.TID 0000.0001)      2 ...........................................kklllllllllllllllllll...lkl......lmmmlllllll...
(PID.TID 0000.0001)      1 ..........................................................................................
(PID.TID 0000.0001) // =======================================================
(PID.TID 0000.0001) // END OF FIELD                                          =
(PID.TID 0000.0001) // =======================================================
(PID.TID 0000.0001) 
(PID.TID 0000.0001) // =======================================================
(PID.TID 0000.0001) // Field Current vVel   at iteration         70
(PID.TID 0000.0001) // CMIN =         -8.551610285043836E-02
(PID.TID 0000.0001) // CMAX =          1.508075166078814E-01
(PID.TID 0000.0001) // CINT =          8.752726646604436E-03
(PID.TID 0000.0001) // SYMBOLS (CMIN->CMAX): -abcdefghijklmnopqrstuvwxyz+
(PID.TID 0000.0001) //                  0.0: .
(PID.TID 0000.0001) // RANGE I (Lo:Hi:Step):(     1:    90:     1)
(PID.TID 0000.0001) // RANGE J (Lo:Hi:Step):(    40:     1:    -1)
(PID.TID 0000.0001) // RANGE K (Lo:Hi:Step):(   1:   1:   1)
(PID.TID 0000.0001) // =======================================================
(PID.TID 0000.0001) K =   1
(PID.TID 0000.0001)                I=10      I=20      I=30      I=40      I=50      I=60      I=70      I=80      I=90
(PID.TID 0000.0001) |--J--|123456789|123456789|123456789|123456789|123456789|123456789|123456789|123456789|123456789|
(PID.TID 0000.0001)     40 ijmnl.hhijjjkj...jj..................................................................ihhhh
(PID.TID 0000.0001)     39 jjklkjjjjjjkk...........................................................iijj........giijjj
(PID.TID 0000.0001)     38 kll.......................................................................iji......hf.llkj
(PID.TID 0000.0001)     37 lm...................................................................ji...iih...filkj.jkjj
(PID.TID 0000.0001)     36 kk.........................................kllk....................ijj....hfgh.edhjjiihjki
(PID.TID 0000.0001)     35 ...................................ijjj..kkklkkj...hilml...................efggfgiiihhkm..
(PID.TID 0000.0001)     34 ....................................ijk.jjiijjjj.hhiiklml...................feghijkkihij..
(PID.TID 0000.0001)     33 ....................................hijjjiiiijihhhhhijkkkkk.................idhkkkkkjhgij.
(PID.TID 0000.0001)     32 ....................................ghhhiihhhhgggggghhhhhij................ljeikkjiihhhj..
(PID.TID 0000.0001)     31 ....................................ihgfffeeeeddddddddeefgi..............hjjhghhgghhhiij..
(PID.TID 0000.0001)     30 ...................................jhecbbba-abbbbbbbbccddde............nlggfeeeefffgiijj..
(PID.TID 0000.0001)     29 .................................kihfdbabba-accdeddeeefffede...........mjgeedegghhhhiiii..
(PID.TID 0000.0001)     28 ...............................nnljihgffgggfhihiiijjjjiiihfef.........lljiiiiiijjiijji....
(PID.TID 0000.0001)     27 ..............ij..............lllkllllklmmlkkkklllllkkjjjihggh...jklo.kmlmmlkjjjjjjjij....
(PID.TID 0000.0001)     26 ..............ikj...........ghlkijklmmmmmllkjjjkkjiiijjjjjiijjkk....nmllijjjiiiijjihjk....
(PID.TID 0000.0001)     25 ..............nnmj...iij...jij.kjklkllmmlllllllmllkkklmmnonnnmlkj....mlkkllmnnnoonnnnk....
(PID.TID 0000.0001)     24 ............orsrpki.lklk...mll..mnprstuvutttssttssssttvwwwutrpnmlllk.....rrptuuuuttsqk....
(PID.TID 0000.0001)     23 ............ouutrnm.kopp...jk...hlruxxz+zxwwwwwwvvvuvvvwwwvtronnmmmml.......stvvuvttsn....
(PID.TID 0000.0001)     22 i...........joqrqnmkjmpq......gfeejnqrtutsrrqrqqqqqrsstuvvusqommlllmlj........nprttsqnjllk
(PID.TID 0000.0001)     21 iih........lmoppmkjjijllk......c.adghknnmlllkkklmmmmnoprrrrrqonmmlkkhf.........jmsspnmlllk
(PID.TID 0000.0001)     20 gfi.......lmqqolhffffhifd......d......ligfgggghijjjjjjkkkjjklkjiihiiih...........spmlllkih
(PID.TID 0000.0001)     19 deh.......jlqpjd-abbccdddfi...hhj.....lkiiiiijjjkkklmkjihgffedddeefghh...........lkgghgfed
(PID.TID 0000.0001)     18 dfh.......h.pqjecefggffffgijkki.....jmonmnmlmmmlmmmnnmkihgfedcccddddefi..........jjhhgebbc
(PID.TID 0000.0001)     17 fhi.......k.lpkjighihjihijkkki.......klkllllmnnmmlllmmmljjjjihggffffggj.........hjjiihgeef
(PID.TID 0000.0001)     16 lmm......ml.ijhgfdgigfghijjii.........ihhhhhjjjjiiiijjihiiiiijjjiiiijkkl........fhiijkkkkk
(PID.TID 0000.0001)     15 lopm....jjj.efedddehfcdfhiihi.........gfeddeefggffffggfffggghijjihijklnnk......iffffghijjk
(PID.TID 0000.0001)     14 llmm....ghkfeffddegihdegjiihi.........gfffffffffffgfffffghhhilkkjijkllnnk.....hhgggggiijkk
(PID.TID 0000.0001)     13 nmmm....fimlijkjiikkihilmljjj.........hhjkkihhiiiiihhhiiijjjlmllmlllmmmk.....ghjjkkjjkkmnn
(PID.TID 0000.0001)     12 onmlmighgjnnmlnmlllmlkkmmmllkjjjkj....ijllm.hhjjkkjiijjkkkkllllmoommmmmj.....gjkklmllmmnoo
(PID.TID 0000.0001)     11 mmmljhhhhilnkijkkkjkkkllllmlkjkkkkj..hikkjk.hhiijjjjjjjklkkkkkjlnonllllk....fhllkkkjjjklmn
(PID.TID 0000.0001)     10 kkklkjihjlnnkhhhkjhghjkkkkkkkjiiiikl.iijjh..ihhgiiiiiiiikllkjjjlnnnllkkj..klhjmmljiiggijkk
(PID.TID 0000.0001)      9 jjklmlihkmnnnljinqkgiklmlkkkkjiiihjmliijji.omjhhiiiiiiiijkmlkjjlnnmmlkhg.nnommopmkjihhjkkk
(PID.TID 0000.0001)      8 mmmmlljkllmnnmlklrqmmlmnnmmllkkkjjlnmjihilprnlkkllkjkkklmmmmlklmnnnmmlge.qpqqqrromljjklmmn
(PID.TID 0000.0001)      7 onmlkklllllmmmlllnqqommnnmmlmmmnmmoomkihiloponnnoonmlkjkllmmmmmmnnnnmmmmopoqrsrqonmkklmnno
(PID.TID 0000.0001)      6 mlkjjkllmlkklkkklmnonmmmlkkllmmmmlmnmlkjjlmnnooppoponljjjjlnnmmmnnnnnnoopqpppoonmllkklmmmm
(PID.TID 0000.0001)      5 jiiiiijjjjiiiiiijjjjjjihhhhiijjiiijjkkkjklllklnonnnnmkjjjjkmmmllmmmmmmmmll..lkllkkkjjkkkkk
(PID.TID 0000.0001)      4 gfffffefgh............................iiiijjjjklllkkjjjjjkkkkkjjjkkkkjiii...jjjjjjjjjjiihh
(PID.TID 0000.0001)      3 ..........................................iiiiiiiiiihhiijjjjihhh..jihi.....iijihhiiijji...
(PID.TID 0000.0001)      2 ..........................................................................................
(PID.TID 0000.0001)      1 ..........................................................................................
(PID.TID 0000.0001) // =======================================================
(PID.TID 0000.0001) // END OF FIELD                                          =
(PID.TID 0000.0001) // =======================================================
(PID.TID 0000.0001) 
(PID.TID 0000.0001) // =======================================================
(PID.TID 0000.0001) // Field Current theta  at iteration         70
(PID.TID 0000.0001) // CMIN =         -1.952671130897901E+00
(PID.TID 0000.0001) // CMAX =          3.078569061770560E+01
(PID.TID 0000.0001) // CINT =          1.212531916614944E+00
(PID.TID 0000.0001) // SYMBOLS (CMIN->CMAX): -abcdefghijklmnopqrstuvwxyz+
(PID.TID 0000.0001) //                  0.0: .
(PID.TID 0000.0001) // RANGE I (Lo:Hi:Step):(     1:    90:     1)
(PID.TID 0000.0001) // RANGE J (Lo:Hi:Step):(    40:     1:    -1)
(PID.TID 0000.0001) // RANGE K (Lo:Hi:Step):(   1:   1:   1)
(PID.TID 0000.0001) // =======================================================
(PID.TID 0000.0001) K =   1
(PID.TID 0000.0001)                I=10      I=20      I=30      I=40      I=50      I=60      I=70      I=80      I=90
(PID.TID 0000.0001) |--J--|123456789|123456789|123456789|123456789|123456789|123456789|123456789|123456789|123456789|
(PID.TID 0000.0001)     40 -bbccba-------abcddbbbbbbbbbbbbbbbbbbbbbbbbbbbbbbbbbbbbbbbbbbbbbbbbbbbbbbbbbbbbbbbbbbaaa--
(PID.TID 0000.0001)     39 bbccccbbaa----bbbddbbbbbbbbbbbbbbbbbbbbbbbbbbbbbbbbbbbbbbbbbbbbbbbbbbbbb----bbbbbbbbbaaaaa
(PID.TID 0000.0001)     38 deeeeecccbaa-bbbbbbbbbbbbbbbbbbbbbbbbbbbbbbbbbbbbbbbbbbbbbbbbbbbbbbbbbbb-----bbbbbba---bcd
(PID.TID 0000.0001)     37 ffgbbbbbbbbbbbbbbbbbbbbbbbbbbbbbbbbbbbbbbbbbbbbbbbbbbbbbbbbbbbbbbbbbbbbbbba-abbbcbeeebcdde
(PID.TID 0000.0001)     36 ggbbbbbbbbbbbbbbbbbbbbbbbbbbbbbbbbbbbbbbbbbba--bbbbbbbbbbbbbbbbbbbbccccbaaabbdbceffghhhggg
(PID.TID 0000.0001)     35 ffbbbbbbbbbbbbbbbbbbbbbbbbbbbbbbbbb----bbbbcccb-bbbddeefbbbbbbbbbbbbbbbbbbbcddddefghhiiihg
(PID.TID 0000.0001)     34 bbbbbbbbbbbbbbbbbbbbbbbbbbbbbbbbbbb----baccccccdbccedefffbbbbbbbbbbbbbbbbbbbabdeffghiijibb
(PID.TID 0000.0001)     33 bbbbbbbbbbbbbbbbbbbbbbbbbbbbbbbbbbbb--abbcccccdddeeeefffgghbbbbbbbbbbbbbbbbbaacghijjkkkjjb
(PID.TID 0000.0001)     32 bbbbbbbbbbbbbbbbbbbbbbbbbbbbbbbbbbbb-abbccddddeefgggggghhhibbbbbbbbbbbbbbbbdcaaiklllllkkjb
(PID.TID 0000.0001)     31 bbbbbbbbbbbbbbbbbbbbbbbbbbbbbbbbbbbbdeffggghhihhiiiiijjjjjjbbbbbbbbbbbbbbhilkgjlmmmmmlllbb
(PID.TID 0000.0001)     30 bbbbbbbbbbbbbbbbbbbbbbbbbbbbbbbbbbbkkjjjkkkkkkkkkkklllmmmllbbbbbbbbbbbbmmnoooooooooonnnnbb
(PID.TID 0000.0001)     29 bbbbbbbbbbbbbbbbbbbbbbbbbbbbbbbbbnnnnnnnnnnnnnnnnnnnnoooonmmbbbbbbbbbbboqqqqqpppppppoooobb
(PID.TID 0000.0001)     28 bbbbbbbbbbbbbbbbbbbbbbbbbbbbbbbmopppppppppppppppppppqqqqponnnbbbbbbbbbrrrrrrrrqqqqqpppppbb
(PID.TID 0000.0001)     27 bbbbbbbbbbbbbbuubbbbbbbbbbbbbbqqrrrrsrrrssssssssssssssrrqqppppbbbrrssbttttttttssssrrrqbbbb
(PID.TID 0000.0001)     26 bbbbbbbbbbbbbbuttbbbbbbbbbbbtstttttuuuuuuuuuuuutuuuttsssrrqqqrsubttuvuuuuuuuuuuttssrrqbbbb
(PID.TID 0000.0001)     25 bbbbbbbbbbbbbbuuvvbbbwvwbbbuuvvvvvwwwwwwwvvvvvvuvuuuuttttsssstuvwbbbvvvvvvvuuuuutssrqqbbbb
(PID.TID 0000.0001)     24 bbbbbbbbbbbbvuvvwxybwwwxbbbwwvbwwwxxxwwwwwvvwwvvvvvvvvvvvvvvvvwwwvvwbwvvvvvvuvuuutttssbbbb
(PID.TID 0000.0001)     23 bbbbbbbbbbbbwvwxxyybwwxxbbbxwwbbwxxxxxxxxxwwwwwwwwwwwwwwwwwwwvwwwwwwvbbbbwvvvvwvvvvvvvbbbb
(PID.TID 0000.0001)     22 wbbbbbbbbbbbwwwxxxyyxxyybbbxxbzyxxxyyxyyyyxxxxxxxxxxxxxwwwwwwwwwwwwvvwbbbbbbxwwwwwxxxyxxxw
(PID.TID 0000.0001)     21 wvvbbbbbbbbxxxxxxxyyyzz++bbbbbzyzzzzzzzzzzzyyyyyyyyyyyxxxxxxxxxxxwwvvvbbbbbbbbyxxyyyyzzyxw
(PID.TID 0000.0001)     20 wwvbbbbbbbyyyyyyyyzzzzzz+bbbbbbzbzzzzz++++zzzzzzzzzzyyyyxxxxxxxxxxxwwvbbbbbbbbbyyyyyyyyxxx
(PID.TID 0000.0001)     19 wvwbbbbbbbzzzyyyyyyyzyzyzzybbbzzzbbbbbz+zz++zzzzzzzzyyyxxxxxxwwvvwwvvvbbbbbbbbbbbyxxwwwvww
(PID.TID 0000.0001)     18 vuubbbbbbbzzyxxxxyyyyyyyyyzzzz+zzbbb++zzzz+zzzzzzzzzyyyyxxxxwwwvvvvvuutbbbbbbbbbbyxxwwvvwv
(PID.TID 0000.0001)     17 uusbbbbbbbzbyxxxxxxyyyyxyyyyyzzbbbbbzzzzzzzzzzzzzzzzyyyyxxxxwwwvuvvuttvbbbbbbbbbxyyxxwuvvu
(PID.TID 0000.0001)     16 utsbbbbbbyzbyxxxxwxwxxxwwxxxyzbbbbbbbyxxyyyzzyyzyyyyyyyxxxxxxwwwvvvuutttbbbbbbbbyyyyxwvvvu
(PID.TID 0000.0001)     15 tsrrbbbbwxxbwxxwwwwwwwwvvvvvxbbbbbbbbbwwxxxxxxxxxxxxxxxxxyyyxwwwwvvuttssrbbbbbbxxxxxxxxwvu
(PID.TID 0000.0001)     14 utrqbbbbwxwwwwwvwwwvuuuuttttubbbbbbbbbvwvwwwwwwwwwxxxxxwxxxxxwwwvvvvtssssbbbbbvwxxxxxxwwvu
(PID.TID 0000.0001)     13 uttrbbbbvxwvwwvuvvvvuuutsstssbbbbbbbbbuvvvvvvvvvvvuvvvwwwwwxxwvvvuuuussspbbbbvvwwwwwwwwvvu
(PID.TID 0000.0001)     12 tsssssrsuvutuutttssstutrrssrrqqrrqbbbbtuuutttttsststttttttuvuutttstttsrrbbbbbtvvvuuuuuuttt
(PID.TID 0000.0001)     11 qppqqrrsssrrrsrqqqppprrppqpppqqqqqqbbssssssbrrrrrrrrrrrrrrssqqrrrqrrrrqpbbbbpqstssrrsrrrqq
(PID.TID 0000.0001)     10 mmllmnopppoooponnmnnmnnmmmmllnnooppobqrrqrqbpqqqqqqpppqpppppooppoooopppobbopppppooonopoonn
(PID.TID 0000.0001)      9 jjiiijjjjjkkkkjjjijjjjjiiijjijkklmnmmnooopbnnoooooooooooonmmmmnnmmllmmmmbmnnnnmmlllkkllkjj
(PID.TID 0000.0001)      8 ggggggghhgghiiiihgghhihggghhhiijjjkkkkllmmmllllllllmmmllllkkkjkkkkkkkklkbkllkkkjiiihhhhggf
(PID.TID 0000.0001)      7 eeeeffffggfffggggfffffeeffgggggghhhhhiijkkkjjjkkkjjjiiiiiiiiiiiiiiiiijjjiijjiihhgffffffeee
(PID.TID 0000.0001)      6 ddddeeeeeeeeeeffffeeeeeffeeeeeefffffggghhhihhhhiihggffgggggggffgghhhhhhhhhhhhggfeeeeeddddd
(PID.TID 0000.0001)      5 dddeeedddeeeeeeeeeeeeeeedddeeeeeeeeeeefffffgffffffeddeeeeeeeeeeefefffffffffeeeedddddddddcd
(PID.TID 0000.0001)      4 ddddddcccddcccccccccccccbbbccccccccccccddddddddcdddddddddddcddddddddddddddbbbbbccccddccccd
(PID.TID 0000.0001)      3 ccccbbbaaabbbbbbbbbbbbbbbbbbbbbbbbbbbbbbbbbbcccccccccccbbbbbbbbbbbbbbbbbbbbbbaaabbcccccbbb
(PID.TID 0000.0001)      2 bbbbbbbbbbbbbbbbbbbbbbbbbbbbbbbbbbbbbbbbbbbbbbcbbbbbbaaaaaaaaababbaaaabbbbbaaaaaabbbbbbbbb
(PID.TID 0000.0001)      1 bbbbbbbbbbbbbbbbbbbbbbbbbbbbbbbbbbbbbbbbbbbbbbbbbbbbbbbbbbbbbbbbbbbbbbbbbbbbbbbbbbbbbbbbbb
(PID.TID 0000.0001) // =======================================================
(PID.TID 0000.0001) // END OF FIELD                                          =
(PID.TID 0000.0001) // =======================================================
(PID.TID 0000.0001) 
(PID.TID 0000.0001) // =======================================================
(PID.TID 0000.0001) // Field Current etaN   at iteration         70
(PID.TID 0000.0001) // CMIN =         -1.906617235006723E+00
(PID.TID 0000.0001) // CMAX =          9.599489837217823E-01
(PID.TID 0000.0001) // CINT =          1.061691192121669E-01
(PID.TID 0000.0001) // SYMBOLS (CMIN->CMAX): -abcdefghijklmnopqrstuvwxyz+
(PID.TID 0000.0001) //                  0.0: .
(PID.TID 0000.0001) // RANGE I (Lo:Hi:Step):(    -1:    92:     1)
(PID.TID 0000.0001) // RANGE J (Lo:Hi:Step):(    42:    -1:    -1)
(PID.TID 0000.0001) // RANGE K (Lo:Hi:Step):(   1:   1:   1)
(PID.TID 0000.0001) // =======================================================
(PID.TID 0000.0001) K =   1
(PID.TID 0000.0001)                I=8       I=18      I=28      I=38      I=48      I=58      I=68      I=78      I=88
(PID.TID 0000.0001) |--J--|101234567|901234567|901234567|901234567|901234567|901234567|901234567|901234567|901234567|9012
(PID.TID 0000.0001)     42 ............................................bbbbbcccccddddddcccccc..dccc.....-aaaaabbbbaa.....
(PID.TID 0000.0001)     41 ..............................................................................................
(PID.TID 0000.0001)     40 kjjjjkk.mmmmmmmmmmmmm..................................................................kkkkjjj
(PID.TID 0000.0001)     39 kjjjjjkllllllmmn...mm.....................................................llll........llkkkjjj
(PID.TID 0000.0001)     38 kkkkllllllllllm...........................................................kkkll......lkkkkkkkk
(PID.TID 0000.0001)     37 kkklm..................................................................mm...llk...kkjkj.jkkkkl
(PID.TID 0000.0001)     36 klln.........................................rrrr....................lmmnmmlkkkk.mjijjkkkkklln
(PID.TID 0000.0001)     35 mmmm.................................oppp..rrrrrrr...ussss...........mmm....mjjjjiiiijjkkkmmmm
(PID.TID 0000.0001)     34 .....................................pppp.rrrrrrrr.rrrqqrss..................kkjiihijjkkln....
(PID.TID 0000.0001)     33 l.....................................pppqqqqqqqrrrrrqqrrrsst.................ljjjjjkllmlll...
(PID.TID 0000.0001)     32 n.....................................ppppqqqrrrrrrrrrrrsssss................flkkklmmmnmmln...
(PID.TID 0000.0001)     31 ......................................ppqqqrrrssssssssstttttt..............jklmmlmmnnnmmmm....
(PID.TID 0000.0001)     30 .....................................qrssssstttttttttttuuuuut............jllmoooppooonnnmm....
(PID.TID 0000.0001)     29 ...................................uvuvvvvvvwvvvvvvvvuuvvvvutt...........nopqqqqppppoonnnn....
(PID.TID 0000.0001)     28 .................................vwxxyyyyxxxxxxwwwwwvvvvvvvvutt.........qqqqqqqqppppoonnnn....
(PID.TID 0000.0001)     27 ................ss..............xxyyzzzzyyyyyyxxxwwwwwwwvvvvuutt...rqqr.rrrrqqqqpppooonn......
(PID.TID 0000.0001)     26 ................sss...........zyyzzzzzzzzzzzyyyyxxxxxxwwwvvvuuuttu.rrrssssssrrrqqpppooon......
(PID.TID 0000.0001)     25 ................sstt...uuu...zyyyzzzzzzzzzzzyyyxxxxxxwwwwvvvuuuuuuv...rsssssrrrqqpppooon......
(PID.TID 0000.0001)     24 ..............tttttuu.vuvv...zyy.+zyyyyyyyyyyxxxxwwwwwwwvvvuuuuuuvvuuu.ssssrrrqqqpppoooo......
(PID.TID 0000.0001)     23 ..............ttttuuu.vvvv...zyy..zxxxxxxxxxxxxwwwwwwwwvvvvvuuuuuuuuuuu....rrqqqqppppppp......
(PID.TID 0000.0001)     22 qqq...........uttttuuvvvvv...zz.zzyxxxwwxxxxxxxxxxxxxwwwwwwvvvvvuuuuuuuu......rqqqqqqqqqqqqqq.
(PID.TID 0000.0001)     21 qqqqp........uuuuuutuuvvvvw.....zzzyyyxxyyyyyyyyyyxyxxxxxwwwvvvvvuuuuuuu........rqqqqrqqqqqqqq
(PID.TID 0000.0001)     20 ppppp.......vvuuuuutuuvvvvv......y.zzzzzzzyyyyyyyyxxxxxxwwwvvvvvvuuuuuut.........rrrqqqqqqpppp
(PID.TID 0000.0001)     19 ppppq.......wvvuutttuuuuuvvvv...xxx.....yyyyyyyyxxxxxwwwwvvvvuuuutttuttt...........rqqqqpppppp
(PID.TID 0000.0001)     18 ooopp.......wvvuuttuuuvuuuuvvvvwwxx...zzzyyyyyxxxxxxxxxwwvvvvuuuutttttttt..........rqqppppooop
(PID.TID 0000.0001)     17 poooo.......x.xvvuvvvvvvvvvvvvvww.....zzyyyyyyxxyyyxxxxxwwwwwvvvuutuuuttt.........ssrqqppppooo
(PID.TID 0000.0001)     16 qppoo......yx.xwwwwvwvvwvvuuvvvv.......yxxxyyyyyyyyyxxxxxxwxxwwwvvuuuuutts........ssrrrqqqqppo
(PID.TID 0000.0001)     15 rqqpoo....wxv.wwwwwvwvvvvvuuuuv.........xxxxxxyxxxxxxxxxxxxxxxxwwvvvuuutsss......qrsssssrrrqqp
(PID.TID 0000.0001)     14 rrqqpo....wwvuvvvvvvvvuuuuttsst.........wwwwxxxxwwwwwwxxxxxxxxxxwvvvvuuutss.....qrrsssssssrrqq
(PID.TID 0000.0001)     13 ssrrqp....vwwvvvuuuuuutuuutsssr.........vwwwwwwvvvvvvvvwwwwwxxxxwwwvvvuutss....qrrrsssstttssrr
(PID.TID 0000.0001)     12 ssrrqqportvwwvvvvuuuuttuuutsssrrrrrr....uvvvvuuuuuuuuuuuuvvvvvwvwwvvuuutts.....qrrrrrrssssssrr
(PID.TID 0000.0001)     11 rqqqqqqrstuvvuuuutttttstttsssrrrrrrrr..ttuuuu.stttttttuuuuuuuuuuvwvuttttss....nppppqpqqrrrrqqq
(PID.TID 0000.0001)     10 poooooooppqqqppqqqqppqqqqqqqqppqqqqrrq.stttuv.rssssttttuuuutttttuvutssssss..olnonmmmnnnopppooo
(PID.TID 0000.0001)      9 lllllllkklmmlkkkkllkklmnnnnnnnnnoppqrqqqrrss.srqrssssttttuuutsssttsrrrrqrq.mmmlmlkjjjjjkllllll
(PID.TID 0000.0001)      8 ggghhhgggghhhhggghjhfhiiiiijjjkkllmnoooopqrssppppqqqrrssssssrrrrrsrqqqppqt.llkjjigfffffggggggh
(PID.TID 0000.0001)      7 ddcccccddeeeeeddeefgfeeeeefffgghhhiijiijklnoonmmnnnnnnooopoooooooooooononoomlljigfedcdddddddcc
(PID.TID 0000.0001)      6 aa---abbbbbbccccccdddccccccddeeeeeeefeefghijkkkjjjjjjiiijjkklllllllllkkkkkkjihgfdcccbbbbbbaa--
(PID.TID 0000.0001)      5 -----aaabbaaaabbbbbccbbbbaabbcccccccccccddeeffgggfffeeddeefghhhhhhhhhggggffeccbaaaaaaaaaa-----
(PID.TID 0000.0001)      4 -----aaaaaaabbbbbbbaabbaabbbbbbbbbcbbbbbbbccccccdcccbbcccddeeeeeeeeeeeddddde..-aaaaaaaa-------
(PID.TID 0000.0001)      3 aaaaaaaaabaa............................bbbbbbbbbbbbbbcccccccccccccddcccded..bbaaaaaaaaaaaaaaa
(PID.TID 0000.0001)      2 ............................................bbbbbcccccddddddcccccc..dccc.....-aaaaabbbbaa.....
(PID.TID 0000.0001)      1 ..............................................................................................
(PID.TID 0000.0001)      0 kjjjjkk.mmmmmmmmmmmmm..................................................................kkkkjjj
(PID.TID 0000.0001)     -1 kjjjjjkllllllmmn...mm.....................................................llll........llkkkjjj
(PID.TID 0000.0001) // =======================================================
(PID.TID 0000.0001) // END OF FIELD                                          =
(PID.TID 0000.0001) // =======================================================
(PID.TID 0000.0001) 
(PID.TID 0000.0001)  MDS_WRITE_FIELD: it,rec,kS,kL,kH=      70     1  15   1  15 file=U.0000000070
(PID.TID 0000.0001)  MDS_WRITE_FIELD: it,rec,kS,kL,kH=      70     1  15   1  15 file=V.0000000070
(PID.TID 0000.0001)  MDS_WRITE_FIELD: it,rec,kS,kL,kH=      70     1  15   1  15 file=T.0000000070
(PID.TID 0000.0001)  MDS_WRITE_FIELD: it,rec,kS,kL,kH=      70     1  15   1  15 file=S.0000000070
(PID.TID 0000.0001)  MDS_WRITE_FIELD: it,rec,kS,kL,kH=      70     1   1   1   1 file=Eta.0000000070
(PID.TID 0000.0001)  MDS_WRITE_FIELD: it,rec,kS,kL,kH=      70     1  15   1  15 file=W.0000000070
(PID.TID 0000.0001)  MDS_WRITE_FIELD: it,rec,kS,kL,kH=      70     1  15   1  15 file=PH.0000000070
(PID.TID 0000.0001)  MDS_WRITE_FIELD: it,rec,kS,kL,kH=      70     1   1   1   1 file=PHL.0000000070
(PID.TID 0000.0001)  MDS_WRITE_FIELD: it,rec,kS,kL,kH=      70     1   1   1   1 file=ETAtave.0000000070
(PID.TID 0000.0001)  MDS_WRITE_FIELD: it,rec,kS,kL,kH=      70     1  15   1  15 file=Ttave.0000000070
(PID.TID 0000.0001)  MDS_WRITE_FIELD: it,rec,kS,kL,kH=      70     1  15   1  15 file=Stave.0000000070
(PID.TID 0000.0001)  MDS_WRITE_FIELD: it,rec,kS,kL,kH=      70     1  15   1  15 file=uVeltave.0000000070
(PID.TID 0000.0001)  MDS_WRITE_FIELD: it,rec,kS,kL,kH=      70     1  15   1  15 file=vVeltave.0000000070
(PID.TID 0000.0001)  MDS_WRITE_FIELD: it,rec,kS,kL,kH=      70     1  15   1  15 file=wVeltave.0000000070
(PID.TID 0000.0001)  MDS_WRITE_FIELD: it,rec,kS,kL,kH=      70     1   1   1   1 file=Eta2tave.0000000070
(PID.TID 0000.0001)  MDS_WRITE_FIELD: it,rec,kS,kL,kH=      70     1  15   1  15 file=UTtave.0000000070
(PID.TID 0000.0001)  MDS_WRITE_FIELD: it,rec,kS,kL,kH=      70     1  15   1  15 file=VTtave.0000000070
(PID.TID 0000.0001)  MDS_WRITE_FIELD: it,rec,kS,kL,kH=      70     1  15   1  15 file=WTtave.0000000070
(PID.TID 0000.0001)  MDS_WRITE_FIELD: it,rec,kS,kL,kH=      70     1  15   1  15 file=UStave.0000000070
(PID.TID 0000.0001)  MDS_WRITE_FIELD: it,rec,kS,kL,kH=      70     1  15   1  15 file=VStave.0000000070
(PID.TID 0000.0001)  MDS_WRITE_FIELD: it,rec,kS,kL,kH=      70     1  15   1  15 file=WStave.0000000070
(PID.TID 0000.0001)  MDS_WRITE_FIELD: it,rec,kS,kL,kH=      70     1  15   1  15 file=TTtave.0000000070
(PID.TID 0000.0001)  MDS_WRITE_FIELD: it,rec,kS,kL,kH=      70     1  15   1  15 file=UUtave.0000000070
(PID.TID 0000.0001)  MDS_WRITE_FIELD: it,rec,kS,kL,kH=      70     1  15   1  15 file=VVtave.0000000070
(PID.TID 0000.0001)  MDS_WRITE_FIELD: it,rec,kS,kL,kH=      70     1  15   1  15 file=UVtave.0000000070
(PID.TID 0000.0001)  MDS_WRITE_FIELD: it,rec,kS,kL,kH=      70     1  15   1  15 file=Tdiftave.0000000070
(PID.TID 0000.0001)  MDS_WRITE_FIELD: it,rec,kS,kL,kH=      70     1  15   1  15 file=PhHytave.0000000070
(PID.TID 0000.0001)  MDS_WRITE_FIELD: it,rec,kS,kL,kH=      70     1   1   1   1 file=PHLtave.0000000070
(PID.TID 0000.0001)  MDS_WRITE_FIELD: it,rec,kS,kL,kH=      70     1   1   1   1 file=uFluxtave.0000000070
(PID.TID 0000.0001)  MDS_WRITE_FIELD: it,rec,kS,kL,kH=      70     1   1   1   1 file=vFluxtave.0000000070
(PID.TID 0000.0001)  MDS_WRITE_FIELD: it,rec,kS,kL,kH=      70     1   1   1   1 file=tFluxtave.0000000070
(PID.TID 0000.0001)  MDS_WRITE_FIELD: it,rec,kS,kL,kH=      70     1   1   1   1 file=sFluxtave.0000000070
(PID.TID 0000.0001)  MDS_WRITE_FIELD: it,rec,kS,kL,kH=      70     1   1   1   1 file=PHL2tave.0000000070
(PID.TID 0000.0001)  MDS_WRITE_FIELD: it,rec,kS,kL,kH=      70     1  15   1  15 file=Convtave.0000000070
(PID.TID 0000.0001) // Time-average data written, t-step        70
(PID.TID 0000.0001) 
(PID.TID 0000.0001)  MDS_WRITE_FIELD: it,rec,kS,kL,kH=      70     1  15   1  15 file=GM_Kwx-T.0000000070
(PID.TID 0000.0001)  MDS_WRITE_FIELD: it,rec,kS,kL,kH=      70     1  15   1  15 file=GM_Kwy-T.0000000070
(PID.TID 0000.0001)  MDS_WRITE_FIELD: it,rec,kS,kL,kH=      70     1  15   1  15 file=GM_Kwz-T.0000000070
(PID.TID 0000.0001)  MDS_WRITE_FIELD: it,rec,kS,kL,kH=      70     1  15   1  15 file=pickup_cd.0000000070
(PID.TID 0000.0001)  MDS_WRITE_FIELD: it,rec,kS,kL,kH=      70     2  15   1  15 file=pickup_cd.0000000070
(PID.TID 0000.0001)  MDS_WRITE_FIELD: it,rec,kS,kL,kH=      70     3  15   1  15 file=pickup_cd.0000000070
(PID.TID 0000.0001)  MDS_WRITE_FIELD: it,rec,kS,kL,kH=      70     4  15   1  15 file=pickup_cd.0000000070
(PID.TID 0000.0001)  MDS_WRITE_FIELD: it,rec,kS,kL,kH=      70    61   1   1   1 file=pickup_cd.0000000070
(PID.TID 0000.0001)  MDS_WRITE_FIELD: it,rec,kS,kL,kH=      70    -1  15   1  15 file=pickup.0000000070
(PID.TID 0000.0001)  MDS_WRITE_FIELD: it,rec,kS,kL,kH=      70    -2  15   1  15 file=pickup.0000000070
(PID.TID 0000.0001)  MDS_WRITE_FIELD: it,rec,kS,kL,kH=      70    -3  15   1  15 file=pickup.0000000070
(PID.TID 0000.0001)  MDS_WRITE_FIELD: it,rec,kS,kL,kH=      70    -4  15   1  15 file=pickup.0000000070
(PID.TID 0000.0001)  MDS_WRITE_FIELD: it,rec,kS,kL,kH=      70    -5  15   1  15 file=pickup.0000000070
(PID.TID 0000.0001)  MDS_WRITE_FIELD: it,rec,kS,kL,kH=      70    -6  15   1  15 file=pickup.0000000070
(PID.TID 0000.0001)  MDS_WRITE_FIELD: it,rec,kS,kL,kH=      70    -7  15   1  15 file=pickup.0000000070
(PID.TID 0000.0001)  MDS_WRITE_FIELD: it,rec,kS,kL,kH=      70    -8  15   1  15 file=pickup.0000000070
(PID.TID 0000.0001)  MDS_WRITE_FIELD: it,rec,kS,kL,kH=      70  -121   1   1   1 file=pickup.0000000070
(PID.TID 0000.0001)  MDS_WRITE_FIELD: it,rec,kS,kL,kH=      70  -122   1   1   1 file=pickup.0000000070
(PID.TID 0000.0001)  MDS_WRITE_FIELD: it,rec,kS,kL,kH=      70  -123   1   1   1 file=pickup.0000000070
(PID.TID 0000.0001) %CHECKPOINT        70 0000000070
 EXTERNAL_FIELDS_LOAD,        70 : iP,iLd,i0,i1=    2    3    2    3 ; Wght=  0.1666666667  0.8333333333
 EXTERNAL_FIELDS_LOAD: (fu0,1),fu,fv= -1.4435E-02 -2.7199E-02 -2.5072E-02 -3.4210E-03
 EXTERNAL_FIELDS_LOAD: SST,SSS,Q,E-P= -2.4190E-01  3.4553E+01  2.1958E+02  8.9635E-06
DEBUG_STATS_RL:          Uvel (THERMODYNAMICS)  min= -1.20646733198485E-01
DEBUG_STATS_RL:          Uvel (THERMODYNAMICS)  max=  1.47815895933533E-01
DEBUG_STATS_RL:          Uvel (THERMODYNAMICS) mean=  6.03611786883346E-03
DEBUG_STATS_RL:          Uvel (THERMODYNAMICS) S.D.=  2.23064193368191E-02
DEBUG_STATS_RL:          Vvel (THERMODYNAMICS)  min= -8.55161028504384E-02
DEBUG_STATS_RL:          Vvel (THERMODYNAMICS)  max=  1.50807516607881E-01
DEBUG_STATS_RL:          Vvel (THERMODYNAMICS) mean=  4.84882119332394E-04
DEBUG_STATS_RL:          Vvel (THERMODYNAMICS) S.D.=  1.35249537320736E-02
DEBUG_STATS_RL:          Wvel (THERMODYNAMICS)  min= -8.42376177586096E-05
DEBUG_STATS_RL:          Wvel (THERMODYNAMICS)  max=  9.51893238746100E-05
DEBUG_STATS_RL:          Wvel (THERMODYNAMICS) mean= -1.10032390961490E-07
DEBUG_STATS_RL:          Wvel (THERMODYNAMICS) S.D.=  9.45708602167498E-06
DEBUG_STATS_RL:         Theta (THERMODYNAMICS)  min= -1.95213470848470E+00
DEBUG_STATS_RL:         Theta (THERMODYNAMICS)  max=  3.08094361911238E+01
DEBUG_STATS_RL:         Theta (THERMODYNAMICS) mean=  3.23092558650454E+00
DEBUG_STATS_RL:         Theta (THERMODYNAMICS) S.D.=  5.88237218842644E+00
DEBUG_STATS_RL:          Salt (THERMODYNAMICS)  min=  9.99999999999997E-03
DEBUG_STATS_RL:          Salt (THERMODYNAMICS)  max=  3.74764889703597E+01
DEBUG_STATS_RL:          Salt (THERMODYNAMICS) mean=  1.88547331915794E+01
DEBUG_STATS_RL:          Salt (THERMODYNAMICS) S.D.=  1.73002778402283E+01
DEBUG_STATS_RL:         GtNm1 (THERMODYNAMICS)  min= -4.87437120255283E-06
DEBUG_STATS_RL:         GtNm1 (THERMODYNAMICS)  max=  2.57174622489669E-06
DEBUG_STATS_RL:         GtNm1 (THERMODYNAMICS) mean=  3.08991102225182E-09
DEBUG_STATS_RL:         GtNm1 (THERMODYNAMICS) S.D.=  1.55821497246898E-07
DEBUG_STATS_RL:         GsNm1 (THERMODYNAMICS)  min= -5.21444411047252E-07
DEBUG_STATS_RL:         GsNm1 (THERMODYNAMICS)  max=  3.45781870582731E-07
DEBUG_STATS_RL:         GsNm1 (THERMODYNAMICS) mean= -1.13137846108420E-10
DEBUG_STATS_RL:         GsNm1 (THERMODYNAMICS) S.D.=  1.45768445771402E-08
DEBUG_STATS_RL:                EtaN (DYNAMICS)  min= -1.90661723500672E+00
DEBUG_STATS_RL:                EtaN (DYNAMICS)  max=  9.59948983721782E-01
DEBUG_STATS_RL:                EtaN (DYNAMICS) mean= -1.91007883400573E-01
DEBUG_STATS_RL:                EtaN (DYNAMICS) S.D.=  7.59619699970226E-01
DEBUG_STATS_RL:                Uvel (DYNAMICS)  min= -1.20646733198485E-01
DEBUG_STATS_RL:                Uvel (DYNAMICS)  max=  1.47815895933533E-01
DEBUG_STATS_RL:                Uvel (DYNAMICS) mean=  6.03611786883346E-03
DEBUG_STATS_RL:                Uvel (DYNAMICS) S.D.=  2.23064193368191E-02
DEBUG_STATS_RL:                Vvel (DYNAMICS)  min= -8.55161028504384E-02
DEBUG_STATS_RL:                Vvel (DYNAMICS)  max=  1.50807516607881E-01
DEBUG_STATS_RL:                Vvel (DYNAMICS) mean=  4.84882119332394E-04
DEBUG_STATS_RL:                Vvel (DYNAMICS) S.D.=  1.35249537320736E-02
DEBUG_STATS_RL:                Wvel (DYNAMICS)  min= -8.42376177586096E-05
DEBUG_STATS_RL:                Wvel (DYNAMICS)  max=  9.51893238746100E-05
DEBUG_STATS_RL:                Wvel (DYNAMICS) mean= -1.10032390961490E-07
DEBUG_STATS_RL:                Wvel (DYNAMICS) S.D.=  9.45708602167498E-06
DEBUG_STATS_RL:               Theta (DYNAMICS)  min= -1.95213470848470E+00
DEBUG_STATS_RL:               Theta (DYNAMICS)  max=  3.08094361911238E+01
DEBUG_STATS_RL:               Theta (DYNAMICS) mean=  3.23092558650454E+00
DEBUG_STATS_RL:               Theta (DYNAMICS) S.D.=  5.88237218842644E+00
DEBUG_STATS_RL:                Salt (DYNAMICS)  min=  9.99999999999997E-03
DEBUG_STATS_RL:                Salt (DYNAMICS)  max=  3.74764889703597E+01
DEBUG_STATS_RL:                Salt (DYNAMICS) mean=  1.88547331915794E+01
DEBUG_STATS_RL:                Salt (DYNAMICS) S.D.=  1.73002778402283E+01
DEBUG_STATS_RL:                  Gu (DYNAMICS)  min= -1.20013821643230E-01
DEBUG_STATS_RL:                  Gu (DYNAMICS)  max=  1.46791159212659E-01
DEBUG_STATS_RL:                  Gu (DYNAMICS) mean=  6.00510275410085E-03
DEBUG_STATS_RL:                  Gu (DYNAMICS) S.D.=  2.28376376308712E-02
DEBUG_STATS_RL:                  Gv (DYNAMICS)  min= -9.24960252772402E-02
DEBUG_STATS_RL:                  Gv (DYNAMICS)  max=  1.51221573461012E-01
DEBUG_STATS_RL:                  Gv (DYNAMICS) mean=  3.23962902808346E-03
DEBUG_STATS_RL:                  Gv (DYNAMICS) S.D.=  1.47082688516204E-02
DEBUG_STATS_RL:               GuNm1 (DYNAMICS)  min= -1.02162112048843E-05
DEBUG_STATS_RL:               GuNm1 (DYNAMICS)  max=  9.31214812407906E-06
DEBUG_STATS_RL:               GuNm1 (DYNAMICS) mean=  6.54862272336468E-09
DEBUG_STATS_RL:               GuNm1 (DYNAMICS) S.D.=  1.20754552865261E-06
DEBUG_STATS_RL:               GvNm1 (DYNAMICS)  min= -1.01482034610441E-05
DEBUG_STATS_RL:               GvNm1 (DYNAMICS)  max=  1.56268111920131E-05
DEBUG_STATS_RL:               GvNm1 (DYNAMICS) mean=  7.38142588441057E-07
DEBUG_STATS_RL:               GvNm1 (DYNAMICS) S.D.=  2.63331971431560E-06
DEBUG_STATS_RL:               GtNm1 (DYNAMICS)  min= -4.87437120255283E-06
DEBUG_STATS_RL:               GtNm1 (DYNAMICS)  max=  2.57174622489669E-06
DEBUG_STATS_RL:               GtNm1 (DYNAMICS) mean=  3.08991102225182E-09
DEBUG_STATS_RL:               GtNm1 (DYNAMICS) S.D.=  1.55821497246898E-07
DEBUG_STATS_RL:               GsNm1 (DYNAMICS)  min= -5.21444411047252E-07
DEBUG_STATS_RL:               GsNm1 (DYNAMICS)  max=  3.45781870582731E-07
DEBUG_STATS_RL:               GsNm1 (DYNAMICS) mean= -1.13137846108420E-10
DEBUG_STATS_RL:               GsNm1 (DYNAMICS) S.D.=  1.45768445771402E-08
DEBUG_STATS_RL:    cg2d_b (SOLVE_FOR_PRESSURE)  min= -1.94812912977733E+04
DEBUG_STATS_RL:    cg2d_b (SOLVE_FOR_PRESSURE)  max=  2.46081094713832E+04
DEBUG_STATS_RL:    cg2d_b (SOLVE_FOR_PRESSURE) mean=  4.87496137645690E+00
DEBUG_STATS_RL:    cg2d_b (SOLVE_FOR_PRESSURE) S.D.=  3.92991461665913E+03
 cg2d: Sum(rhs),rhsMax =   4.58610426762774E-01  1.61632651646546E+00
(PID.TID 0000.0001)  cg2d: iter=     1 ; resid.=  9.96033912399900E-02
(PID.TID 0000.0001)  cg2d: iter=     2 ; resid.=  8.22471377912588E-02
(PID.TID 0000.0001)  cg2d: iter=     3 ; resid.=  7.74009738670810E-02
(PID.TID 0000.0001)  cg2d: iter=     4 ; resid.=  7.19757660348895E-02
(PID.TID 0000.0001)  cg2d: iter=     5 ; resid.=  6.79732690423751E-02
(PID.TID 0000.0001)  cg2d: iter=     6 ; resid.=  6.32046895665739E-02
(PID.TID 0000.0001)  cg2d: iter=     7 ; resid.=  5.24010383749875E-02
(PID.TID 0000.0001)  cg2d: iter=     8 ; resid.=  3.87269183816716E-02
(PID.TID 0000.0001)  cg2d: iter=     9 ; resid.=  3.02645628282973E-02
(PID.TID 0000.0001)  cg2d: iter=    10 ; resid.=  2.15281182449009E-02
(PID.TID 0000.0001)  cg2d: iter=    11 ; resid.=  1.83732001186098E-02
(PID.TID 0000.0001)  cg2d: iter=    12 ; resid.=  1.63747711435995E-02
(PID.TID 0000.0001)  cg2d: iter=    13 ; resid.=  1.34360442627018E-02
(PID.TID 0000.0001)  cg2d: iter=    14 ; resid.=  1.14524934267901E-02
(PID.TID 0000.0001)  cg2d: iter=    15 ; resid.=  9.25517395340434E-03
(PID.TID 0000.0001)  cg2d: iter=    16 ; resid.=  7.88234934065112E-03
(PID.TID 0000.0001)  cg2d: iter=    17 ; resid.=  7.07873714596708E-03
(PID.TID 0000.0001)  cg2d: iter=    18 ; resid.=  6.22458520607402E-03
(PID.TID 0000.0001)  cg2d: iter=    19 ; resid.=  4.82246424763866E-03
(PID.TID 0000.0001)  cg2d: iter=    20 ; resid.=  3.54341509700754E-03
(PID.TID 0000.0001)  cg2d: iter=    21 ; resid.=  3.04256773694388E-03
(PID.TID 0000.0001)  cg2d: iter=    22 ; resid.=  2.71996314888535E-03
(PID.TID 0000.0001)  cg2d: iter=    23 ; resid.=  2.36262880909837E-03
(PID.TID 0000.0001)  cg2d: iter=    24 ; resid.=  1.98644239739131E-03
(PID.TID 0000.0001)  cg2d: iter=    25 ; resid.=  1.64512484429752E-03
(PID.TID 0000.0001)  cg2d: iter=    26 ; resid.=  1.29996636103184E-03
(PID.TID 0000.0001)  cg2d: iter=    27 ; resid.=  1.00212129896601E-03
(PID.TID 0000.0001)  cg2d: iter=    28 ; resid.=  7.71392521965589E-04
(PID.TID 0000.0001)  cg2d: iter=    29 ; resid.=  6.23098312384358E-04
(PID.TID 0000.0001)  cg2d: iter=    30 ; resid.=  4.98384340466834E-04
(PID.TID 0000.0001)  cg2d: iter=    31 ; resid.=  4.20936312171191E-04
(PID.TID 0000.0001)  cg2d: iter=    32 ; resid.=  3.14065855498937E-04
(PID.TID 0000.0001)  cg2d: iter=    33 ; resid.=  2.48832256307428E-04
(PID.TID 0000.0001)  cg2d: iter=    34 ; resid.=  2.14164610101548E-04
(PID.TID 0000.0001)  cg2d: iter=    35 ; resid.=  1.87941862271226E-04
(PID.TID 0000.0001)  cg2d: iter=    36 ; resid.=  1.62705705642362E-04
(PID.TID 0000.0001)  cg2d: iter=    37 ; resid.=  1.28075874269817E-04
(PID.TID 0000.0001)  cg2d: iter=    38 ; resid.=  1.10997450105779E-04
(PID.TID 0000.0001)  cg2d: iter=    39 ; resid.=  9.52385435886465E-05
(PID.TID 0000.0001)  cg2d: iter=    40 ; resid.=  8.11195558185125E-05
(PID.TID 0000.0001)  cg2d: iter=    41 ; resid.=  6.65975632107794E-05
(PID.TID 0000.0001)  cg2d: iter=    42 ; resid.=  5.74823557418393E-05
(PID.TID 0000.0001)  cg2d: iter=    43 ; resid.=  4.57060536304354E-05
(PID.TID 0000.0001)  cg2d: iter=    44 ; resid.=  3.50751182005802E-05
(PID.TID 0000.0001)  cg2d: iter=    45 ; resid.=  3.06955552746402E-05
(PID.TID 0000.0001)  cg2d: iter=    46 ; resid.=  2.39493422401069E-05
(PID.TID 0000.0001)  cg2d: iter=    47 ; resid.=  1.89953809897465E-05
(PID.TID 0000.0001)  cg2d: iter=    48 ; resid.=  1.56537417733259E-05
(PID.TID 0000.0001)  cg2d: iter=    49 ; resid.=  1.31086449192071E-05
(PID.TID 0000.0001)  cg2d: iter=    50 ; resid.=  1.17809664752199E-05
(PID.TID 0000.0001)  cg2d: iter=    51 ; resid.=  1.05877211120667E-05
(PID.TID 0000.0001)  cg2d: iter=    52 ; resid.=  9.31814107885511E-06
(PID.TID 0000.0001)  cg2d: iter=    53 ; resid.=  7.87177557791293E-06
(PID.TID 0000.0001)  cg2d: iter=    54 ; resid.=  6.40085270657235E-06
(PID.TID 0000.0001)  cg2d: iter=    55 ; resid.=  5.33783562561421E-06
(PID.TID 0000.0001)  cg2d: iter=    56 ; resid.=  4.24019584648541E-06
(PID.TID 0000.0001)  cg2d: iter=    57 ; resid.=  3.83854010336081E-06
(PID.TID 0000.0001)  cg2d: iter=    58 ; resid.=  3.27364990968615E-06
(PID.TID 0000.0001)  cg2d: iter=    59 ; resid.=  2.63525595342136E-06
(PID.TID 0000.0001)  cg2d: iter=    60 ; resid.=  2.10232582890848E-06
(PID.TID 0000.0001)  cg2d: iter=    61 ; resid.=  1.73615469320172E-06
(PID.TID 0000.0001)  cg2d: iter=    62 ; resid.=  1.48859274703551E-06
(PID.TID 0000.0001)  cg2d: iter=    63 ; resid.=  1.28279576950219E-06
(PID.TID 0000.0001)  cg2d: iter=    64 ; resid.=  1.07282249087179E-06
(PID.TID 0000.0001)  cg2d: iter=    65 ; resid.=  8.33978330942220E-07
(PID.TID 0000.0001)  cg2d: iter=    66 ; resid.=  6.96125056482461E-07
(PID.TID 0000.0001)  cg2d: iter=    67 ; resid.=  5.66340001400822E-07
(PID.TID 0000.0001)  cg2d: iter=    68 ; resid.=  5.21910228843719E-07
(PID.TID 0000.0001)  cg2d: iter=    69 ; resid.=  4.63031685623903E-07
(PID.TID 0000.0001)  cg2d: iter=    70 ; resid.=  3.86780300788542E-07
(PID.TID 0000.0001)  cg2d: iter=    71 ; resid.=  3.09996254101522E-07
(PID.TID 0000.0001)  cg2d: iter=    72 ; resid.=  2.56688367030913E-07
(PID.TID 0000.0001)  cg2d: iter=    73 ; resid.=  2.35359749199119E-07
(PID.TID 0000.0001)  cg2d: iter=    74 ; resid.=  2.07814041845748E-07
(PID.TID 0000.0001)  cg2d: iter=    75 ; resid.=  1.72597640955805E-07
(PID.TID 0000.0001)  cg2d: iter=    76 ; resid.=  1.41975791782620E-07
(PID.TID 0000.0001)  cg2d: iter=    77 ; resid.=  1.15142805782567E-07
(PID.TID 0000.0001)  cg2d: iter=    78 ; resid.=  8.80916201813734E-08
(PID.TID 0000.0001)  cg2d: iter=    79 ; resid.=  7.30221661272487E-08
(PID.TID 0000.0001)  cg2d: iter=    80 ; resid.=  5.61968226490459E-08
(PID.TID 0000.0001)  cg2d: iter=    81 ; resid.=  4.25328063180140E-08
(PID.TID 0000.0001)  cg2d: iter=    82 ; resid.=  2.95569407885646E-08
(PID.TID 0000.0001)  cg2d: iter=    83 ; resid.=  2.09715725782249E-08
(PID.TID 0000.0001)  cg2d: iter=    84 ; resid.=  1.56194674274925E-08
(PID.TID 0000.0001)  cg2d: iter=    85 ; resid.=  1.09489163507357E-08
(PID.TID 0000.0001)  cg2d: iter=    86 ; resid.=  8.48297105222878E-09
(PID.TID 0000.0001)  cg2d: iter=    87 ; resid.=  6.93051855160580E-09
(PID.TID 0000.0001)  cg2d: iter=    88 ; resid.=  5.44391257777711E-09
(PID.TID 0000.0001)  cg2d: iter=    89 ; resid.=  4.98251397459677E-09
(PID.TID 0000.0001)  cg2d: iter=    90 ; resid.=  4.48397654794030E-09
(PID.TID 0000.0001)  cg2d: iter=    91 ; resid.=  3.62434808337120E-09
(PID.TID 0000.0001)  cg2d: iter=    92 ; resid.=  2.72644260463444E-09
(PID.TID 0000.0001)  cg2d: iter=    93 ; resid.=  2.24929430835108E-09
(PID.TID 0000.0001)  cg2d: iter=    94 ; resid.=  1.72516095388784E-09
(PID.TID 0000.0001)  cg2d: iter=    95 ; resid.=  1.34308247294011E-09
(PID.TID 0000.0001)  cg2d: iter=    96 ; resid.=  1.06177865275490E-09
(PID.TID 0000.0001)  cg2d: iter=    97 ; resid.=  8.12227822233458E-10
(PID.TID 0000.0001)  cg2d: iter=    98 ; resid.=  6.60268679283440E-10
(PID.TID 0000.0001)  cg2d: iter=    99 ; resid.=  5.59338784938920E-10
(PID.TID 0000.0001)  cg2d: iter=   100 ; resid.=  5.58547105493550E-10
(PID.TID 0000.0001)  cg2d: iter=   101 ; resid.=  4.35290911935871E-10
(PID.TID 0000.0001)  cg2d: iter=   102 ; resid.=  3.41431390257667E-10
(PID.TID 0000.0001)  cg2d: iter=   103 ; resid.=  2.73394332663913E-10
(PID.TID 0000.0001)  cg2d: iter=   104 ; resid.=  2.04822249052580E-10
(PID.TID 0000.0001)  cg2d: iter=   105 ; resid.=  1.59537184630295E-10
(PID.TID 0000.0001)  cg2d: iter=   106 ; resid.=  1.30779199738109E-10
(PID.TID 0000.0001)  cg2d: iter=   107 ; resid.=  9.54848453294597E-11
(PID.TID 0000.0001)  cg2d: iter=   108 ; resid.=  7.37124300634108E-11
(PID.TID 0000.0001)  cg2d: iter=   109 ; resid.=  5.75036772017032E-11
(PID.TID 0000.0001)  cg2d: iter=   110 ; resid.=  3.99804183920320E-11
(PID.TID 0000.0001)  cg2d: iter=   111 ; resid.=  3.05437095690505E-11
(PID.TID 0000.0001)  cg2d: iter=   112 ; resid.=  2.38412035740559E-11
(PID.TID 0000.0001)  cg2d: iter=   113 ; resid.=  1.80896284735057E-11
(PID.TID 0000.0001)  cg2d: iter=   114 ; resid.=  1.31558943560137E-11
(PID.TID 0000.0001)  cg2d: iter=   115 ; resid.=  1.04202816455304E-11
(PID.TID 0000.0001)  cg2d: iter=   116 ; resid.=  8.13423765288551E-12
(PID.TID 0000.0001)  cg2d: iter=   117 ; resid.=  6.73479467701483E-12
(PID.TID 0000.0001)  cg2d: iter=   118 ; resid.=  5.37753319342320E-12
(PID.TID 0000.0001)  cg2d: iter=   119 ; resid.=  4.04067358659108E-12
(PID.TID 0000.0001)  cg2d: iter=   120 ; resid.=  2.73541183101278E-12
(PID.TID 0000.0001)  cg2d: iter=   121 ; resid.=  1.87412682232411E-12
(PID.TID 0000.0001)  cg2d: iter=   122 ; resid.=  1.38135786298957E-12
(PID.TID 0000.0001)  cg2d: iter=   123 ; resid.=  9.79918361998964E-13
(PID.TID 0000.0001)  cg2d: iter=   124 ; resid.=  7.16115697196867E-13
(PID.TID 0000.0001)  cg2d: iter=   125 ; resid.=  5.58787902471521E-13
(PID.TID 0000.0001)  cg2d: iter=   126 ; resid.=  3.97896037437074E-13
(PID.TID 0000.0001)  cg2d: iter=   127 ; resid.=  2.73512278401637E-13
(PID.TID 0000.0001)  cg2d: iter=   128 ; resid.=  1.85242388654385E-13
(PID.TID 0000.0001)  cg2d: iter=   129 ; resid.=  1.32202603720865E-13
(PID.TID 0000.0001)  cg2d: iter=   130 ; resid.=  9.12430440794577E-14
DEBUG_STATS_RL:    cg2d_x (SOLVE_FOR_PRESSURE)  min= -1.88787125364129E+01
DEBUG_STATS_RL:    cg2d_x (SOLVE_FOR_PRESSURE)  max=  9.63835305296867E+00
DEBUG_STATS_RL:    cg2d_x (SOLVE_FOR_PRESSURE) mean= -1.88973359527052E+00
DEBUG_STATS_RL:    cg2d_x (SOLVE_FOR_PRESSURE) S.D.=  7.52561712795025E+00
(PID.TID 0000.0001)      cg2d_init_res =   2.66699098662226E-01
(PID.TID 0000.0001)      cg2d_iters(min,last) =      -1     130
(PID.TID 0000.0001)      cg2d_last_res =   9.12430440794577E-14
(PID.TID 0000.0001) // =======================================================
(PID.TID 0000.0001) // Begin MONITOR dynamic field statistics
(PID.TID 0000.0001) // =======================================================
(PID.TID 0000.0001) %MON time_tsnumber                =                    71
(PID.TID 0000.0001) %MON time_secondsf                =   6.1344000000000E+06
(PID.TID 0000.0001) %MON dynstat_eta_max              =   9.8250285962979E-01
(PID.TID 0000.0001) %MON dynstat_eta_min              =  -1.9244355286866E+00
(PID.TID 0000.0001) %MON dynstat_eta_mean             =  -5.0864177210780E-03
(PID.TID 0000.0001) %MON dynstat_eta_sd               =   6.7191020855017E-01
(PID.TID 0000.0001) %MON dynstat_eta_del2             =   2.4144621096692E-03
(PID.TID 0000.0001) %MON dynstat_uvel_max             =   1.4838136262027E-01
(PID.TID 0000.0001) %MON dynstat_uvel_min             =  -1.1971278607717E-01
(PID.TID 0000.0001) %MON dynstat_uvel_mean            =   2.3842787002163E-03
(PID.TID 0000.0001) %MON dynstat_uvel_sd              =   1.4355306714739E-02
(PID.TID 0000.0001) %MON dynstat_uvel_del2            =   8.8365719447508E-05
(PID.TID 0000.0001) %MON dynstat_vvel_max             =   1.5078842248953E-01
(PID.TID 0000.0001) %MON dynstat_vvel_min             =  -8.5140118563105E-02
(PID.TID 0000.0001) %MON dynstat_vvel_mean            =  -4.5897668148243E-05
(PID.TID 0000.0001) %MON dynstat_vvel_sd              =   8.4039628237654E-03
(PID.TID 0000.0001) %MON dynstat_vvel_del2            =   7.3992553710635E-05
(PID.TID 0000.0001) %MON dynstat_wvel_max             =   1.0714519485370E-04
(PID.TID 0000.0001) %MON dynstat_wvel_min             =  -8.3415866801104E-05
(PID.TID 0000.0001) %MON dynstat_wvel_mean            =   1.2067581035137E-22
(PID.TID 0000.0001) %MON dynstat_wvel_sd              =   1.0752123741866E-05
(PID.TID 0000.0001) %MON dynstat_wvel_del2            =   1.0670049646818E-07
(PID.TID 0000.0001) %MON dynstat_theta_max            =   3.0809436191124E+01
(PID.TID 0000.0001) %MON dynstat_theta_min            =  -1.9521347084847E+00
(PID.TID 0000.0001) %MON dynstat_theta_mean           =   3.6337553635719E+00
(PID.TID 0000.0001) %MON dynstat_theta_sd             =   4.4258453457413E+00
(PID.TID 0000.0001) %MON dynstat_theta_del2           =   4.8737565037240E-03
(PID.TID 0000.0001) %MON dynstat_salt_max             =   3.7476488970360E+01
(PID.TID 0000.0001) %MON dynstat_salt_min             =   2.9903477909654E+01
(PID.TID 0000.0001) %MON dynstat_salt_mean            =   3.4728004709272E+01
(PID.TID 0000.0001) %MON dynstat_salt_sd              =   2.9652774534377E-01
(PID.TID 0000.0001) %MON dynstat_salt_del2            =   9.8933008502679E-04
(PID.TID 0000.0001) %MON dynstat_sst_max              =   3.0809436191124E+01
(PID.TID 0000.0001) %MON dynstat_sst_min              =  -1.9521347084847E+00
(PID.TID 0000.0001) %MON dynstat_sst_mean             =   1.9049128092295E+01
(PID.TID 0000.0001) %MON dynstat_sst_sd               =   9.1160390199248E+00
(PID.TID 0000.0001) %MON dynstat_sst_del2             =   2.8415609453326E-02
(PID.TID 0000.0001) %MON dynstat_sss_max              =   3.7464206988941E+01
(PID.TID 0000.0001) %MON dynstat_sss_min              =   2.9903477909654E+01
(PID.TID 0000.0001) %MON dynstat_sss_mean             =   3.4848003648282E+01
(PID.TID 0000.0001) %MON dynstat_sss_sd               =   9.8398153709721E-01
(PID.TID 0000.0001) %MON dynstat_sss_del2             =   8.0934064351041E-03
(PID.TID 0000.0001) %MON forcing_qnet_max             =   2.8849844868978E+02
(PID.TID 0000.0001) %MON forcing_qnet_min             =  -1.6535198720296E+02
(PID.TID 0000.0001) %MON forcing_qnet_mean            =  -8.3817634882777E+00
(PID.TID 0000.0001) %MON forcing_qnet_sd              =   4.9864795267644E+01
(PID.TID 0000.0001) %MON forcing_qnet_del2            =   8.5719679671987E-01
(PID.TID 0000.0001) %MON forcing_qsw_max              =   0.0000000000000E+00
(PID.TID 0000.0001) %MON forcing_qsw_min              =   0.0000000000000E+00
(PID.TID 0000.0001) %MON forcing_qsw_mean             =   0.0000000000000E+00
(PID.TID 0000.0001) %MON forcing_qsw_sd               =   0.0000000000000E+00
(PID.TID 0000.0001) %MON forcing_qsw_del2             =   0.0000000000000E+00
(PID.TID 0000.0001) %MON forcing_empmr_max            =   6.9137603494103E-05
(PID.TID 0000.0001) %MON forcing_empmr_min            =  -8.1268519617576E-05
(PID.TID 0000.0001) %MON forcing_empmr_mean           =   6.1616070805047E-07
(PID.TID 0000.0001) %MON forcing_empmr_sd             =   2.6421504912725E-05
(PID.TID 0000.0001) %MON forcing_empmr_del2           =   3.6086334081367E-07
(PID.TID 0000.0001) %MON forcing_fu_max               =   3.4784431755543E-01
(PID.TID 0000.0001) %MON forcing_fu_min               =  -3.5669582585494E-01
(PID.TID 0000.0001) %MON forcing_fu_mean              =   1.9985731353096E-02
(PID.TID 0000.0001) %MON forcing_fu_sd                =   9.9411775460539E-02
(PID.TID 0000.0001) %MON forcing_fu_del2              =   7.8843066227507E-04
(PID.TID 0000.0001) %MON forcing_fv_max               =   1.6417456045747E-01
(PID.TID 0000.0001) %MON forcing_fv_min               =  -1.8584267546733E-01
(PID.TID 0000.0001) %MON forcing_fv_mean              =  -7.4774336901972E-03
(PID.TID 0000.0001) %MON forcing_fv_sd                =   4.1978074219208E-02
(PID.TID 0000.0001) %MON forcing_fv_del2              =   4.8213719373275E-04
(PID.TID 0000.0001) %MON trAdv_CFL_u_max              =   4.8868342084934E-02
(PID.TID 0000.0001) %MON trAdv_CFL_v_max              =   2.9180085855906E-02
(PID.TID 0000.0001) %MON trAdv_CFL_w_max              =   3.0941435381126E-02
(PID.TID 0000.0001) %MON advcfl_uvel_max              =   4.9045325471736E-02
(PID.TID 0000.0001) %MON advcfl_vvel_max              =   2.9295772134167E-02
(PID.TID 0000.0001) %MON advcfl_wvel_max              =   3.0126620989584E-02
(PID.TID 0000.0001) %MON advcfl_W_hf_max              =   3.6151945187501E-02
(PID.TID 0000.0001) %MON pe_b_mean                    =   5.7773485067029E-04
(PID.TID 0000.0001) %MON ke_max                       =   1.3471144190958E-02
(PID.TID 0000.0001) %MON ke_mean                      =   1.2791391655989E-04
(PID.TID 0000.0001) %MON ke_vol                       =   1.3226782436723E+18
(PID.TID 0000.0001) %MON vort_r_min                   =  -3.0427252792679E-07
(PID.TID 0000.0001) %MON vort_r_max                   =   4.0380440566127E-07
(PID.TID 0000.0001) %MON vort_a_mean                  =  -2.5274806807991E-05
(PID.TID 0000.0001) %MON vort_a_sd                    =   7.3604672552448E-05
(PID.TID 0000.0001) %MON vort_p_mean                  =  -3.1845655056767E-05
(PID.TID 0000.0001) %MON vort_p_sd                    =   1.3162496175307E-04
(PID.TID 0000.0001) %MON surfExpan_theta_mean         =   3.8470445258426E-07
(PID.TID 0000.0001) %MON surfExpan_salt_mean          =  -6.7997065769905E-08
(PID.TID 0000.0001) // =======================================================
(PID.TID 0000.0001) // End MONITOR dynamic field statistics
(PID.TID 0000.0001) // =======================================================
 EXTERNAL_FIELDS_LOAD,        71 : iP,iLd,i0,i1=    2    3    2    3 ; Wght=  0.1333333333  0.8666666667
 EXTERNAL_FIELDS_LOAD: (fu0,1),fu,fv= -1.4435E-02 -2.7199E-02 -2.5497E-02 -2.8524E-03
 EXTERNAL_FIELDS_LOAD: SST,SSS,Q,E-P= -2.3030E-01  3.4558E+01  2.1874E+02  8.9870E-06
DEBUG_STATS_RL:          Uvel (THERMODYNAMICS)  min= -1.19712786077169E-01
DEBUG_STATS_RL:          Uvel (THERMODYNAMICS)  max=  1.48381362620275E-01
DEBUG_STATS_RL:          Uvel (THERMODYNAMICS) mean=  6.08859748262499E-03
DEBUG_STATS_RL:          Uvel (THERMODYNAMICS) S.D.=  2.24388698686299E-02
DEBUG_STATS_RL:          Vvel (THERMODYNAMICS)  min= -8.51401185631049E-02
DEBUG_STATS_RL:          Vvel (THERMODYNAMICS)  max=  1.50788422489526E-01
DEBUG_STATS_RL:          Vvel (THERMODYNAMICS) mean=  5.29421444363915E-04
DEBUG_STATS_RL:          Vvel (THERMODYNAMICS) S.D.=  1.35109029915443E-02
DEBUG_STATS_RL:          Wvel (THERMODYNAMICS)  min= -8.34158668011040E-05
DEBUG_STATS_RL:          Wvel (THERMODYNAMICS)  max=  1.07145194853702E-04
DEBUG_STATS_RL:          Wvel (THERMODYNAMICS) mean= -9.51032539141412E-08
DEBUG_STATS_RL:          Wvel (THERMODYNAMICS) S.D.=  9.45768051933442E-06
DEBUG_STATS_RL:         Theta (THERMODYNAMICS)  min= -1.95159595623684E+00
DEBUG_STATS_RL:         Theta (THERMODYNAMICS)  max=  3.08332953087119E+01
DEBUG_STATS_RL:         Theta (THERMODYNAMICS) mean=  3.23102792601452E+00
DEBUG_STATS_RL:         Theta (THERMODYNAMICS) S.D.=  5.88285886377555E+00
DEBUG_STATS_RL:          Salt (THERMODYNAMICS)  min=  9.99999999999997E-03
DEBUG_STATS_RL:          Salt (THERMODYNAMICS)  max=  3.74761691424579E+01
DEBUG_STATS_RL:          Salt (THERMODYNAMICS) mean=  1.88547346345792E+01
DEBUG_STATS_RL:          Salt (THERMODYNAMICS) S.D.=  1.73002798961120E+01
DEBUG_STATS_RL:         GtNm1 (THERMODYNAMICS)  min= -4.67669571395615E-06
DEBUG_STATS_RL:         GtNm1 (THERMODYNAMICS)  max=  2.43803983089691E-06
DEBUG_STATS_RL:         GtNm1 (THERMODYNAMICS) mean=  2.86698292775903E-09
DEBUG_STATS_RL:         GtNm1 (THERMODYNAMICS) S.D.=  1.53935948372452E-07
DEBUG_STATS_RL:         GsNm1 (THERMODYNAMICS)  min= -4.92346101236911E-07
DEBUG_STATS_RL:         GsNm1 (THERMODYNAMICS)  max=  3.20949195715841E-07
DEBUG_STATS_RL:         GsNm1 (THERMODYNAMICS) mean= -7.13164847071687E-11
DEBUG_STATS_RL:         GsNm1 (THERMODYNAMICS) S.D.=  1.42984614672550E-08
DEBUG_STATS_RL:                EtaN (DYNAMICS)  min= -1.92443552868662E+00
DEBUG_STATS_RL:                EtaN (DYNAMICS)  max=  9.82502859629789E-01
DEBUG_STATS_RL:                EtaN (DYNAMICS) mean= -1.92633394013305E-01
DEBUG_STATS_RL:                EtaN (DYNAMICS) S.D.=  7.67137321911338E-01
DEBUG_STATS_RL:                Uvel (DYNAMICS)  min= -1.19712786077169E-01
DEBUG_STATS_RL:                Uvel (DYNAMICS)  max=  1.48381362620275E-01
DEBUG_STATS_RL:                Uvel (DYNAMICS) mean=  6.08859748262499E-03
DEBUG_STATS_RL:                Uvel (DYNAMICS) S.D.=  2.24388698686299E-02
DEBUG_STATS_RL:                Vvel (DYNAMICS)  min= -8.51401185631049E-02
DEBUG_STATS_RL:                Vvel (DYNAMICS)  max=  1.50788422489526E-01
DEBUG_STATS_RL:                Vvel (DYNAMICS) mean=  5.29421444363915E-04
DEBUG_STATS_RL:                Vvel (DYNAMICS) S.D.=  1.35109029915443E-02
DEBUG_STATS_RL:                Wvel (DYNAMICS)  min= -8.34158668011040E-05
DEBUG_STATS_RL:                Wvel (DYNAMICS)  max=  1.07145194853702E-04
DEBUG_STATS_RL:                Wvel (DYNAMICS) mean= -9.51032539141412E-08
DEBUG_STATS_RL:                Wvel (DYNAMICS) S.D.=  9.45768051933442E-06
DEBUG_STATS_RL:               Theta (DYNAMICS)  min= -1.95159595623684E+00
DEBUG_STATS_RL:               Theta (DYNAMICS)  max=  3.08332953087119E+01
DEBUG_STATS_RL:               Theta (DYNAMICS) mean=  3.23102792601452E+00
DEBUG_STATS_RL:               Theta (DYNAMICS) S.D.=  5.88285886377555E+00
DEBUG_STATS_RL:                Salt (DYNAMICS)  min=  9.99999999999997E-03
DEBUG_STATS_RL:                Salt (DYNAMICS)  max=  3.74761691424579E+01
DEBUG_STATS_RL:                Salt (DYNAMICS) mean=  1.88547346345792E+01
DEBUG_STATS_RL:                Salt (DYNAMICS) S.D.=  1.73002798961120E+01
DEBUG_STATS_RL:                  Gu (DYNAMICS)  min= -1.19451846077965E-01
DEBUG_STATS_RL:                  Gu (DYNAMICS)  max=  1.46783826670694E-01
DEBUG_STATS_RL:                  Gu (DYNAMICS) mean=  6.05762442287008E-03
DEBUG_STATS_RL:                  Gu (DYNAMICS) S.D.=  2.29486927077854E-02
DEBUG_STATS_RL:                  Gv (DYNAMICS)  min= -9.15495333843989E-02
DEBUG_STATS_RL:                  Gv (DYNAMICS)  max=  1.51127522097427E-01
DEBUG_STATS_RL:                  Gv (DYNAMICS) mean=  3.29088928579189E-03
DEBUG_STATS_RL:                  Gv (DYNAMICS) S.D.=  1.47396334911369E-02
DEBUG_STATS_RL:               GuNm1 (DYNAMICS)  min= -1.02580950316723E-05
DEBUG_STATS_RL:               GuNm1 (DYNAMICS)  max=  9.31171680255759E-06
DEBUG_STATS_RL:               GuNm1 (DYNAMICS) mean=  6.82343478166813E-09
DEBUG_STATS_RL:               GuNm1 (DYNAMICS) S.D.=  1.20972510661792E-06
DEBUG_STATS_RL:               GvNm1 (DYNAMICS)  min= -1.01178173262986E-05
DEBUG_STATS_RL:               GvNm1 (DYNAMICS)  max=  1.56196402911564E-05
DEBUG_STATS_RL:               GvNm1 (DYNAMICS) mean=  7.37998218006741E-07
DEBUG_STATS_RL:               GvNm1 (DYNAMICS) S.D.=  2.63115170950292E-06
DEBUG_STATS_RL:               GtNm1 (DYNAMICS)  min= -4.67669571395615E-06
DEBUG_STATS_RL:               GtNm1 (DYNAMICS)  max=  2.43803983089691E-06
DEBUG_STATS_RL:               GtNm1 (DYNAMICS) mean=  2.86698292775903E-09
DEBUG_STATS_RL:               GtNm1 (DYNAMICS) S.D.=  1.53935948372452E-07
DEBUG_STATS_RL:               GsNm1 (DYNAMICS)  min= -4.92346101236911E-07
DEBUG_STATS_RL:               GsNm1 (DYNAMICS)  max=  3.20949195715841E-07
DEBUG_STATS_RL:               GsNm1 (DYNAMICS) mean= -7.13164847071687E-11
DEBUG_STATS_RL:               GsNm1 (DYNAMICS) S.D.=  1.42984614672550E-08
DEBUG_STATS_RL:    cg2d_b (SOLVE_FOR_PRESSURE)  min= -2.00186821996569E+04
DEBUG_STATS_RL:    cg2d_b (SOLVE_FOR_PRESSURE)  max=  2.45332573966748E+04
DEBUG_STATS_RL:    cg2d_b (SOLVE_FOR_PRESSURE) mean=  4.92321176698015E+00
DEBUG_STATS_RL:    cg2d_b (SOLVE_FOR_PRESSURE) S.D.=  3.93153600289797E+03
 cg2d: Sum(rhs),rhsMax =   4.64562656979429E-01  1.61141003178775E+00
(PID.TID 0000.0001)  cg2d: iter=     1 ; resid.=  9.86327950627659E-02
(PID.TID 0000.0001)  cg2d: iter=     2 ; resid.=  7.70126733201743E-02
(PID.TID 0000.0001)  cg2d: iter=     3 ; resid.=  7.10419564736524E-02
(PID.TID 0000.0001)  cg2d: iter=     4 ; resid.=  6.68578677087596E-02
(PID.TID 0000.0001)  cg2d: iter=     5 ; resid.=  6.21691032275623E-02
(PID.TID 0000.0001)  cg2d: iter=     6 ; resid.=  5.76000472077820E-02
(PID.TID 0000.0001)  cg2d: iter=     7 ; resid.=  4.88396656706879E-02
(PID.TID 0000.0001)  cg2d: iter=     8 ; resid.=  3.65447936708888E-02
(PID.TID 0000.0001)  cg2d: iter=     9 ; resid.=  2.90261506051182E-02
(PID.TID 0000.0001)  cg2d: iter=    10 ; resid.=  2.09787673391929E-02
(PID.TID 0000.0001)  cg2d: iter=    11 ; resid.=  1.77839068247225E-02
(PID.TID 0000.0001)  cg2d: iter=    12 ; resid.=  1.56393581106345E-02
(PID.TID 0000.0001)  cg2d: iter=    13 ; resid.=  1.25418980248033E-02
(PID.TID 0000.0001)  cg2d: iter=    14 ; resid.=  1.05730019412771E-02
(PID.TID 0000.0001)  cg2d: iter=    15 ; resid.=  8.52362687370331E-03
(PID.TID 0000.0001)  cg2d: iter=    16 ; resid.=  7.29844849504371E-03
(PID.TID 0000.0001)  cg2d: iter=    17 ; resid.=  6.57653093160909E-03
(PID.TID 0000.0001)  cg2d: iter=    18 ; resid.=  5.94722059956407E-03
(PID.TID 0000.0001)  cg2d: iter=    19 ; resid.=  4.66175598913139E-03
(PID.TID 0000.0001)  cg2d: iter=    20 ; resid.=  3.39704244835431E-03
(PID.TID 0000.0001)  cg2d: iter=    21 ; resid.=  2.85516271001897E-03
(PID.TID 0000.0001)  cg2d: iter=    22 ; resid.=  2.51799331461760E-03
(PID.TID 0000.0001)  cg2d: iter=    23 ; resid.=  2.20333975819297E-03
(PID.TID 0000.0001)  cg2d: iter=    24 ; resid.=  1.84602806993723E-03
(PID.TID 0000.0001)  cg2d: iter=    25 ; resid.=  1.53382633346214E-03
(PID.TID 0000.0001)  cg2d: iter=    26 ; resid.=  1.23582172368632E-03
(PID.TID 0000.0001)  cg2d: iter=    27 ; resid.=  9.58509452487207E-04
(PID.TID 0000.0001)  cg2d: iter=    28 ; resid.=  7.54767143398745E-04
(PID.TID 0000.0001)  cg2d: iter=    29 ; resid.=  6.17704570513391E-04
(PID.TID 0000.0001)  cg2d: iter=    30 ; resid.=  5.01759529324858E-04
(PID.TID 0000.0001)  cg2d: iter=    31 ; resid.=  4.20877652133718E-04
(PID.TID 0000.0001)  cg2d: iter=    32 ; resid.=  3.12268450518026E-04
(PID.TID 0000.0001)  cg2d: iter=    33 ; resid.=  2.47207134420597E-04
(PID.TID 0000.0001)  cg2d: iter=    34 ; resid.=  2.08978037124876E-04
(PID.TID 0000.0001)  cg2d: iter=    35 ; resid.=  1.83198173338468E-04
(PID.TID 0000.0001)  cg2d: iter=    36 ; resid.=  1.59618332098072E-04
(PID.TID 0000.0001)  cg2d: iter=    37 ; resid.=  1.28276590440030E-04
(PID.TID 0000.0001)  cg2d: iter=    38 ; resid.=  1.12229260640783E-04
(PID.TID 0000.0001)  cg2d: iter=    39 ; resid.=  9.69072282327179E-05
(PID.TID 0000.0001)  cg2d: iter=    40 ; resid.=  8.37029621165651E-05
(PID.TID 0000.0001)  cg2d: iter=    41 ; resid.=  6.94122685636852E-05
(PID.TID 0000.0001)  cg2d: iter=    42 ; resid.=  6.03747145102507E-05
(PID.TID 0000.0001)  cg2d: iter=    43 ; resid.=  4.84226636262929E-05
(PID.TID 0000.0001)  cg2d: iter=    44 ; resid.=  3.72993603256269E-05
(PID.TID 0000.0001)  cg2d: iter=    45 ; resid.=  3.22150034257155E-05
(PID.TID 0000.0001)  cg2d: iter=    46 ; resid.=  2.54195933588640E-05
(PID.TID 0000.0001)  cg2d: iter=    47 ; resid.=  2.06851920499820E-05
(PID.TID 0000.0001)  cg2d: iter=    48 ; resid.=  1.74007450826679E-05
(PID.TID 0000.0001)  cg2d: iter=    49 ; resid.=  1.47707058165711E-05
(PID.TID 0000.0001)  cg2d: iter=    50 ; resid.=  1.33022600498977E-05
(PID.TID 0000.0001)  cg2d: iter=    51 ; resid.=  1.19017034726255E-05
(PID.TID 0000.0001)  cg2d: iter=    52 ; resid.=  1.03891371752151E-05
(PID.TID 0000.0001)  cg2d: iter=    53 ; resid.=  8.61259752745599E-06
(PID.TID 0000.0001)  cg2d: iter=    54 ; resid.=  6.88015087602779E-06
(PID.TID 0000.0001)  cg2d: iter=    55 ; resid.=  5.70347160834029E-06
(PID.TID 0000.0001)  cg2d: iter=    56 ; resid.=  4.57232147376598E-06
(PID.TID 0000.0001)  cg2d: iter=    57 ; resid.=  4.20327792334050E-06
(PID.TID 0000.0001)  cg2d: iter=    58 ; resid.=  3.55730956984521E-06
(PID.TID 0000.0001)  cg2d: iter=    59 ; resid.=  2.88005151974500E-06
(PID.TID 0000.0001)  cg2d: iter=    60 ; resid.=  2.29665749605102E-06
(PID.TID 0000.0001)  cg2d: iter=    61 ; resid.=  1.88179769831947E-06
(PID.TID 0000.0001)  cg2d: iter=    62 ; resid.=  1.59900790798983E-06
(PID.TID 0000.0001)  cg2d: iter=    63 ; resid.=  1.38094529527409E-06
(PID.TID 0000.0001)  cg2d: iter=    64 ; resid.=  1.14660455353208E-06
(PID.TID 0000.0001)  cg2d: iter=    65 ; resid.=  8.83533738962180E-07
(PID.TID 0000.0001)  cg2d: iter=    66 ; resid.=  7.32811040811583E-07
(PID.TID 0000.0001)  cg2d: iter=    67 ; resid.=  5.92663663461082E-07
(PID.TID 0000.0001)  cg2d: iter=    68 ; resid.=  5.25501570804703E-07
(PID.TID 0000.0001)  cg2d: iter=    69 ; resid.=  4.63627465380996E-07
(PID.TID 0000.0001)  cg2d: iter=    70 ; resid.=  3.85235434044030E-07
(PID.TID 0000.0001)  cg2d: iter=    71 ; resid.=  3.10210809292328E-07
(PID.TID 0000.0001)  cg2d: iter=    72 ; resid.=  2.58402288289881E-07
(PID.TID 0000.0001)  cg2d: iter=    73 ; resid.=  2.37207391819857E-07
(PID.TID 0000.0001)  cg2d: iter=    74 ; resid.=  2.09337908906521E-07
(PID.TID 0000.0001)  cg2d: iter=    75 ; resid.=  1.70880670894437E-07
(PID.TID 0000.0001)  cg2d: iter=    76 ; resid.=  1.39142186548670E-07
(PID.TID 0000.0001)  cg2d: iter=    77 ; resid.=  1.11960014100337E-07
(PID.TID 0000.0001)  cg2d: iter=    78 ; resid.=  8.61167795424472E-08
(PID.TID 0000.0001)  cg2d: iter=    79 ; resid.=  7.29719905292298E-08
(PID.TID 0000.0001)  cg2d: iter=    80 ; resid.=  5.73245006459782E-08
(PID.TID 0000.0001)  cg2d: iter=    81 ; resid.=  4.40283210276054E-08
(PID.TID 0000.0001)  cg2d: iter=    82 ; resid.=  3.07938834433797E-08
(PID.TID 0000.0001)  cg2d: iter=    83 ; resid.=  2.22467871238094E-08
(PID.TID 0000.0001)  cg2d: iter=    84 ; resid.=  1.65391201632915E-08
(PID.TID 0000.0001)  cg2d: iter=    85 ; resid.=  1.16903688435530E-08
(PID.TID 0000.0001)  cg2d: iter=    86 ; resid.=  9.14096767107291E-09
(PID.TID 0000.0001)  cg2d: iter=    87 ; resid.=  7.44598314401113E-09
(PID.TID 0000.0001)  cg2d: iter=    88 ; resid.=  5.84634683921717E-09
(PID.TID 0000.0001)  cg2d: iter=    89 ; resid.=  5.23820647892178E-09
(PID.TID 0000.0001)  cg2d: iter=    90 ; resid.=  4.63154593660035E-09
(PID.TID 0000.0001)  cg2d: iter=    91 ; resid.=  3.62671444418616E-09
(PID.TID 0000.0001)  cg2d: iter=    92 ; resid.=  2.66176659032134E-09
(PID.TID 0000.0001)  cg2d: iter=    93 ; resid.=  2.19259891629484E-09
(PID.TID 0000.0001)  cg2d: iter=    94 ; resid.=  1.71114000649511E-09
(PID.TID 0000.0001)  cg2d: iter=    95 ; resid.=  1.36053672288309E-09
(PID.TID 0000.0001)  cg2d: iter=    96 ; resid.=  1.08539551457452E-09
(PID.TID 0000.0001)  cg2d: iter=    97 ; resid.=  8.36733961272034E-10
(PID.TID 0000.0001)  cg2d: iter=    98 ; resid.=  6.69533439813992E-10
(PID.TID 0000.0001)  cg2d: iter=    99 ; resid.=  5.49648535328568E-10
(PID.TID 0000.0001)  cg2d: iter=   100 ; resid.=  5.51263594571973E-10
(PID.TID 0000.0001)  cg2d: iter=   101 ; resid.=  4.31756860897925E-10
(PID.TID 0000.0001)  cg2d: iter=   102 ; resid.=  3.45027825259303E-10
(PID.TID 0000.0001)  cg2d: iter=   103 ; resid.=  2.84271552137962E-10
(PID.TID 0000.0001)  cg2d: iter=   104 ; resid.=  2.15024701945642E-10
(PID.TID 0000.0001)  cg2d: iter=   105 ; resid.=  1.71801983276788E-10
(PID.TID 0000.0001)  cg2d: iter=   106 ; resid.=  1.42688977728099E-10
(PID.TID 0000.0001)  cg2d: iter=   107 ; resid.=  1.05984516973570E-10
(PID.TID 0000.0001)  cg2d: iter=   108 ; resid.=  8.28577882497905E-11
(PID.TID 0000.0001)  cg2d: iter=   109 ; resid.=  6.35602363490283E-11
(PID.TID 0000.0001)  cg2d: iter=   110 ; resid.=  4.32059633459629E-11
(PID.TID 0000.0001)  cg2d: iter=   111 ; resid.=  3.22051417678493E-11
(PID.TID 0000.0001)  cg2d: iter=   112 ; resid.=  2.48270280370322E-11
(PID.TID 0000.0001)  cg2d: iter=   113 ; resid.=  1.90184798265510E-11
(PID.TID 0000.0001)  cg2d: iter=   114 ; resid.=  1.42706338303703E-11
(PID.TID 0000.0001)  cg2d: iter=   115 ; resid.=  1.15743791890705E-11
(PID.TID 0000.0001)  cg2d: iter=   116 ; resid.=  8.85661605572678E-12
(PID.TID 0000.0001)  cg2d: iter=   117 ; resid.=  7.14837027768849E-12
(PID.TID 0000.0001)  cg2d: iter=   118 ; resid.=  5.51319011386369E-12
(PID.TID 0000.0001)  cg2d: iter=   119 ; resid.=  4.14675800797158E-12
(PID.TID 0000.0001)  cg2d: iter=   120 ; resid.=  2.81594577632240E-12
(PID.TID 0000.0001)  cg2d: iter=   121 ; resid.=  2.04788831543946E-12
(PID.TID 0000.0001)  cg2d: iter=   122 ; resid.=  1.60765744334087E-12
(PID.TID 0000.0001)  cg2d: iter=   123 ; resid.=  1.16742520111035E-12
(PID.TID 0000.0001)  cg2d: iter=   124 ; resid.=  8.74395403581446E-13
(PID.TID 0000.0001)  cg2d: iter=   125 ; resid.=  6.65231096945710E-13
(PID.TID 0000.0001)  cg2d: iter=   126 ; resid.=  4.63336259139065E-13
(PID.TID 0000.0001)  cg2d: iter=   127 ; resid.=  3.16369179033246E-13
(PID.TID 0000.0001)  cg2d: iter=   128 ; resid.=  2.15405870986632E-13
(PID.TID 0000.0001)  cg2d: iter=   129 ; resid.=  1.55714097710819E-13
(PID.TID 0000.0001)  cg2d: iter=   130 ; resid.=  1.08651127055031E-13
(PID.TID 0000.0001)  cg2d: iter=   131 ; resid.=  8.01999851856231E-14
DEBUG_STATS_RL:    cg2d_x (SOLVE_FOR_PRESSURE)  min= -1.90249282809685E+01
DEBUG_STATS_RL:    cg2d_x (SOLVE_FOR_PRESSURE)  max=  9.83162391494768E+00
DEBUG_STATS_RL:    cg2d_x (SOLVE_FOR_PRESSURE) mean= -1.90477994959847E+00
DEBUG_STATS_RL:    cg2d_x (SOLVE_FOR_PRESSURE) S.D.=  7.59270050395517E+00
(PID.TID 0000.0001)      cg2d_init_res =   2.66796228293930E-01
(PID.TID 0000.0001)      cg2d_iters(min,last) =      -1     131
(PID.TID 0000.0001)      cg2d_last_res =   8.01999851856231E-14
(PID.TID 0000.0001) // =======================================================
(PID.TID 0000.0001) // Begin MONITOR dynamic field statistics
(PID.TID 0000.0001) // =======================================================
(PID.TID 0000.0001) %MON time_tsnumber                =                    72
(PID.TID 0000.0001) %MON time_secondsf                =   6.2208000000000E+06
(PID.TID 0000.0001) %MON dynstat_eta_max              =   1.0022042726755E+00
(PID.TID 0000.0001) %MON dynstat_eta_min              =  -1.9393402936767E+00
(PID.TID 0000.0001) %MON dynstat_eta_mean             =  -5.1367610207378E-03
(PID.TID 0000.0001) %MON dynstat_eta_sd               =   6.7927489707187E-01
(PID.TID 0000.0001) %MON dynstat_eta_del2             =   2.4198659911346E-03
(PID.TID 0000.0001) %MON dynstat_uvel_max             =   1.4790873914397E-01
(PID.TID 0000.0001) %MON dynstat_uvel_min             =  -1.1911787473565E-01
(PID.TID 0000.0001) %MON dynstat_uvel_mean            =   2.4005139061529E-03
(PID.TID 0000.0001) %MON dynstat_uvel_sd              =   1.4416227231683E-02
(PID.TID 0000.0001) %MON dynstat_uvel_del2            =   8.8680148879713E-05
(PID.TID 0000.0001) %MON dynstat_vvel_max             =   1.5037636273078E-01
(PID.TID 0000.0001) %MON dynstat_vvel_min             =  -8.4117953925129E-02
(PID.TID 0000.0001) %MON dynstat_vvel_mean            =  -5.3492515987166E-05
(PID.TID 0000.0001) %MON dynstat_vvel_sd              =   8.3864217894662E-03
(PID.TID 0000.0001) %MON dynstat_vvel_del2            =   7.4061770329642E-05
(PID.TID 0000.0001) %MON dynstat_wvel_max             =   1.1987906129637E-04
(PID.TID 0000.0001) %MON dynstat_wvel_min             =  -8.1612496691918E-05
(PID.TID 0000.0001) %MON dynstat_wvel_mean            =   1.4456425714488E-22
(PID.TID 0000.0001) %MON dynstat_wvel_sd              =   1.0757730588125E-05
(PID.TID 0000.0001) %MON dynstat_wvel_del2            =   1.0643509747295E-07
(PID.TID 0000.0001) %MON dynstat_theta_max            =   3.0833295308712E+01
(PID.TID 0000.0001) %MON dynstat_theta_min            =  -1.9515959562368E+00
(PID.TID 0000.0001) %MON dynstat_theta_mean           =   3.6337924719840E+00
(PID.TID 0000.0001) %MON dynstat_theta_sd             =   4.4260328404840E+00
(PID.TID 0000.0001) %MON dynstat_theta_del2           =   4.8697850071741E-03
(PID.TID 0000.0001) %MON dynstat_salt_max             =   3.7476169142458E+01
(PID.TID 0000.0001) %MON dynstat_salt_min             =   2.9905020968437E+01
(PID.TID 0000.0001) %MON dynstat_salt_mean            =   3.4728006883345E+01
(PID.TID 0000.0001) %MON dynstat_salt_sd              =   2.9653822362100E-01
(PID.TID 0000.0001) %MON dynstat_salt_del2            =   9.8953397246141E-04
(PID.TID 0000.0001) %MON dynstat_sst_max              =   3.0833295308712E+01
(PID.TID 0000.0001) %MON dynstat_sst_min              =  -1.9515959562368E+00
(PID.TID 0000.0001) %MON dynstat_sst_mean             =   1.9052588396742E+01
(PID.TID 0000.0001) %MON dynstat_sst_sd               =   9.1220361767946E+00
(PID.TID 0000.0001) %MON dynstat_sst_del2             =   2.8457615982934E-02
(PID.TID 0000.0001) %MON dynstat_sss_max              =   3.7464883844642E+01
(PID.TID 0000.0001) %MON dynstat_sss_min              =   2.9905020968437E+01
(PID.TID 0000.0001) %MON dynstat_sss_mean             =   3.4847953728077E+01
(PID.TID 0000.0001) %MON dynstat_sss_sd               =   9.8428032267384E-01
(PID.TID 0000.0001) %MON dynstat_sss_del2             =   8.1027576708330E-03
(PID.TID 0000.0001) %MON forcing_qnet_max             =   2.8570029703776E+02
(PID.TID 0000.0001) %MON forcing_qnet_min             =  -1.6505270792643E+02
(PID.TID 0000.0001) %MON forcing_qnet_mean            =  -8.1584239886512E+00
(PID.TID 0000.0001) %MON forcing_qnet_sd              =   4.9087615346713E+01
(PID.TID 0000.0001) %MON forcing_qnet_del2            =   8.5584718826358E-01
(PID.TID 0000.0001) %MON forcing_qsw_max              =   0.0000000000000E+00
(PID.TID 0000.0001) %MON forcing_qsw_min              =   0.0000000000000E+00
(PID.TID 0000.0001) %MON forcing_qsw_mean             =   0.0000000000000E+00
(PID.TID 0000.0001) %MON forcing_qsw_sd               =   0.0000000000000E+00
(PID.TID 0000.0001) %MON forcing_qsw_del2             =   0.0000000000000E+00
(PID.TID 0000.0001) %MON forcing_empmr_max            =   6.9131847150553E-05
(PID.TID 0000.0001) %MON forcing_empmr_min            =  -8.1667699210660E-05
(PID.TID 0000.0001) %MON forcing_empmr_mean           =   6.0307077717612E-07
(PID.TID 0000.0001) %MON forcing_empmr_sd             =   2.6389948211674E-05
(PID.TID 0000.0001) %MON forcing_empmr_del2           =   3.6187086686805E-07
(PID.TID 0000.0001) %MON forcing_fu_max               =   3.4978573322296E-01
(PID.TID 0000.0001) %MON forcing_fu_min               =  -3.6306794484456E-01
(PID.TID 0000.0001) %MON forcing_fu_mean              =   2.0079930942554E-02
(PID.TID 0000.0001) %MON forcing_fu_sd                =   9.9921924992738E-02
(PID.TID 0000.0001) %MON forcing_fu_del2              =   7.9937861961633E-04
(PID.TID 0000.0001) %MON forcing_fv_max               =   1.6799971759319E-01
(PID.TID 0000.0001) %MON forcing_fv_min               =  -1.8734046618144E-01
(PID.TID 0000.0001) %MON forcing_fv_mean              =  -7.4878620401667E-03
(PID.TID 0000.0001) %MON forcing_fv_sd                =   4.2084455794319E-02
(PID.TID 0000.0001) %MON forcing_fv_del2              =   4.8631922143069E-04
(PID.TID 0000.0001) %MON trAdv_CFL_u_max              =   4.9055286928117E-02
(PID.TID 0000.0001) %MON trAdv_CFL_v_max              =   2.9176391291965E-02
(PID.TID 0000.0001) %MON trAdv_CFL_w_max              =   3.1902453296313E-02
(PID.TID 0000.0001) %MON advcfl_uvel_max              =   4.8889106578666E-02
(PID.TID 0000.0001) %MON advcfl_vvel_max              =   2.9215715531686E-02
(PID.TID 0000.0001) %MON advcfl_wvel_max              =   3.0469606026005E-02
(PID.TID 0000.0001) %MON advcfl_W_hf_max              =   3.6563527231206E-02
(PID.TID 0000.0001) %MON pe_b_mean                    =   5.9046908667185E-04
(PID.TID 0000.0001) %MON ke_max                       =   1.3560344452353E-02
(PID.TID 0000.0001) %MON ke_mean                      =   1.2861363732298E-04
(PID.TID 0000.0001) %MON ke_vol                       =   1.3226782436723E+18
(PID.TID 0000.0001) %MON vort_r_min                   =  -3.1008756340423E-07
(PID.TID 0000.0001) %MON vort_r_max                   =   4.0323934529834E-07
(PID.TID 0000.0001) %MON vort_a_mean                  =  -2.5274806778126E-05
(PID.TID 0000.0001) %MON vort_a_sd                    =   7.3604675212296E-05
(PID.TID 0000.0001) %MON vort_p_mean                  =  -3.1845655019137E-05
(PID.TID 0000.0001) %MON vort_p_sd                    =   1.3162501343194E-04
(PID.TID 0000.0001) %MON surfExpan_theta_mean         =   3.6347601381751E-07
(PID.TID 0000.0001) %MON surfExpan_salt_mean          =  -5.9558807871925E-08
(PID.TID 0000.0001) // =======================================================
(PID.TID 0000.0001) // End MONITOR dynamic field statistics
(PID.TID 0000.0001) // =======================================================
 EXTERNAL_FIELDS_LOAD,        72 : iP,iLd,i0,i1=    2    3    2    3 ; Wght=  0.1000000000  0.9000000000
 EXTERNAL_FIELDS_LOAD: (fu0,1),fu,fv= -1.4435E-02 -2.7199E-02 -2.5922E-02 -2.2838E-03
 EXTERNAL_FIELDS_LOAD: SST,SSS,Q,E-P= -2.1870E-01  3.4563E+01  2.1790E+02  9.0104E-06
DEBUG_STATS_RL:          Uvel (THERMODYNAMICS)  min= -1.19117874735652E-01
DEBUG_STATS_RL:          Uvel (THERMODYNAMICS)  max=  1.47908739143975E-01
DEBUG_STATS_RL:          Uvel (THERMODYNAMICS) mean=  6.13816850965603E-03
DEBUG_STATS_RL:          Uvel (THERMODYNAMICS) S.D.=  2.25433940091752E-02
DEBUG_STATS_RL:          Vvel (THERMODYNAMICS)  min= -8.41179539251287E-02
DEBUG_STATS_RL:          Vvel (THERMODYNAMICS)  max=  1.50376362730777E-01
DEBUG_STATS_RL:          Vvel (THERMODYNAMICS) mean=  5.83758956159044E-04
DEBUG_STATS_RL:          Vvel (THERMODYNAMICS) S.D.=  1.35082897988933E-02
DEBUG_STATS_RL:          Wvel (THERMODYNAMICS)  min= -8.16124966919180E-05
DEBUG_STATS_RL:          Wvel (THERMODYNAMICS)  max=  1.19879061296374E-04
DEBUG_STATS_RL:          Wvel (THERMODYNAMICS) mean= -7.92025470089092E-08
DEBUG_STATS_RL:          Wvel (THERMODYNAMICS) S.D.=  9.47392815623189E-06
DEBUG_STATS_RL:         Theta (THERMODYNAMICS)  min= -1.95104093401340E+00
DEBUG_STATS_RL:         Theta (THERMODYNAMICS)  max=  3.08572506056291E+01
DEBUG_STATS_RL:         Theta (THERMODYNAMICS) mean=  3.23111632207107E+00
DEBUG_STATS_RL:         Theta (THERMODYNAMICS) S.D.=  5.88334779219535E+00
DEBUG_STATS_RL:          Salt (THERMODYNAMICS)  min=  9.99999999999997E-03
DEBUG_STATS_RL:          Salt (THERMODYNAMICS)  max=  3.74758185522793E+01
DEBUG_STATS_RL:          Salt (THERMODYNAMICS) mean=  1.88547375152866E+01
DEBUG_STATS_RL:          Salt (THERMODYNAMICS) S.D.=  1.73002832768463E+01
DEBUG_STATS_RL:         GtNm1 (THERMODYNAMICS)  min= -4.74775130276203E-06
DEBUG_STATS_RL:         GtNm1 (THERMODYNAMICS)  max=  2.49425032560048E-06
DEBUG_STATS_RL:         GtNm1 (THERMODYNAMICS) mean=  2.63276903129704E-09
DEBUG_STATS_RL:         GtNm1 (THERMODYNAMICS) S.D.=  1.53333910098397E-07
DEBUG_STATS_RL:         GsNm1 (THERMODYNAMICS)  min= -4.66486659559638E-07
DEBUG_STATS_RL:         GsNm1 (THERMODYNAMICS)  max=  3.10067320553192E-07
DEBUG_STATS_RL:         GsNm1 (THERMODYNAMICS) mean= -3.26649715933885E-11
DEBUG_STATS_RL:         GsNm1 (THERMODYNAMICS) S.D.=  1.41715709974549E-08
DEBUG_STATS_RL:                EtaN (DYNAMICS)  min= -1.93934029367670E+00
DEBUG_STATS_RL:                EtaN (DYNAMICS)  max=  1.00220427267555E+00
DEBUG_STATS_RL:                EtaN (DYNAMICS) mean= -1.94167171212891E-01
DEBUG_STATS_RL:                EtaN (DYNAMICS) S.D.=  7.73975586539773E-01
DEBUG_STATS_RL:                Uvel (DYNAMICS)  min= -1.19117874735652E-01
DEBUG_STATS_RL:                Uvel (DYNAMICS)  max=  1.47908739143975E-01
DEBUG_STATS_RL:                Uvel (DYNAMICS) mean=  6.13816850965603E-03
DEBUG_STATS_RL:                Uvel (DYNAMICS) S.D.=  2.25433940091752E-02
DEBUG_STATS_RL:                Vvel (DYNAMICS)  min= -8.41179539251287E-02
DEBUG_STATS_RL:                Vvel (DYNAMICS)  max=  1.50376362730777E-01
DEBUG_STATS_RL:                Vvel (DYNAMICS) mean=  5.83758956159044E-04
DEBUG_STATS_RL:                Vvel (DYNAMICS) S.D.=  1.35082897988933E-02
DEBUG_STATS_RL:                Wvel (DYNAMICS)  min= -8.16124966919180E-05
DEBUG_STATS_RL:                Wvel (DYNAMICS)  max=  1.19879061296374E-04
DEBUG_STATS_RL:                Wvel (DYNAMICS) mean= -7.92025470089092E-08
DEBUG_STATS_RL:                Wvel (DYNAMICS) S.D.=  9.47392815623189E-06
DEBUG_STATS_RL:               Theta (DYNAMICS)  min= -1.95104093401340E+00
DEBUG_STATS_RL:               Theta (DYNAMICS)  max=  3.08572506056291E+01
DEBUG_STATS_RL:               Theta (DYNAMICS) mean=  3.23111632207107E+00
DEBUG_STATS_RL:               Theta (DYNAMICS) S.D.=  5.88334779219535E+00
DEBUG_STATS_RL:                Salt (DYNAMICS)  min=  9.99999999999997E-03
DEBUG_STATS_RL:                Salt (DYNAMICS)  max=  3.74758185522793E+01
DEBUG_STATS_RL:                Salt (DYNAMICS) mean=  1.88547375152866E+01
DEBUG_STATS_RL:                Salt (DYNAMICS) S.D.=  1.73002832768463E+01
DEBUG_STATS_RL:                  Gu (DYNAMICS)  min= -1.18846185091019E-01
DEBUG_STATS_RL:                  Gu (DYNAMICS)  max=  1.45771893254372E-01
DEBUG_STATS_RL:                  Gu (DYNAMICS) mean=  6.10729424726655E-03
DEBUG_STATS_RL:                  Gu (DYNAMICS) S.D.=  2.30303385718339E-02
DEBUG_STATS_RL:                  Gv (DYNAMICS)  min= -8.97621091781708E-02
DEBUG_STATS_RL:                  Gv (DYNAMICS)  max=  1.50644287246660E-01
DEBUG_STATS_RL:                  Gv (DYNAMICS) mean=  3.34642140847797E-03
DEBUG_STATS_RL:                  Gv (DYNAMICS) S.D.=  1.47851761948974E-02
DEBUG_STATS_RL:               GuNm1 (DYNAMICS)  min= -1.02959431526531E-05
DEBUG_STATS_RL:               GuNm1 (DYNAMICS)  max=  9.31226832671333E-06
DEBUG_STATS_RL:               GuNm1 (DYNAMICS) mean=  7.14521045395017E-09
DEBUG_STATS_RL:               GuNm1 (DYNAMICS) S.D.=  1.21210895076797E-06
DEBUG_STATS_RL:               GvNm1 (DYNAMICS)  min= -1.00791875779234E-05
DEBUG_STATS_RL:               GvNm1 (DYNAMICS)  max=  1.56137326920900E-05
DEBUG_STATS_RL:               GvNm1 (DYNAMICS) mean=  7.37867309887932E-07
DEBUG_STATS_RL:               GvNm1 (DYNAMICS) S.D.=  2.62905130376314E-06
DEBUG_STATS_RL:               GtNm1 (DYNAMICS)  min= -4.74775130276203E-06
DEBUG_STATS_RL:               GtNm1 (DYNAMICS)  max=  2.49425032560048E-06
DEBUG_STATS_RL:               GtNm1 (DYNAMICS) mean=  2.63276903129704E-09
DEBUG_STATS_RL:               GtNm1 (DYNAMICS) S.D.=  1.53333910098397E-07
DEBUG_STATS_RL:               GsNm1 (DYNAMICS)  min= -4.66486659559638E-07
DEBUG_STATS_RL:               GsNm1 (DYNAMICS)  max=  3.10067320553192E-07
DEBUG_STATS_RL:               GsNm1 (DYNAMICS) mean= -3.26649715933885E-11
DEBUG_STATS_RL:               GsNm1 (DYNAMICS) S.D.=  1.41715709974549E-08
DEBUG_STATS_RL:    cg2d_b (SOLVE_FOR_PRESSURE)  min= -2.06054470682033E+04
DEBUG_STATS_RL:    cg2d_b (SOLVE_FOR_PRESSURE)  max=  2.44536868619385E+04
DEBUG_STATS_RL:    cg2d_b (SOLVE_FOR_PRESSURE) mean=  4.97041486040207E+00
DEBUG_STATS_RL:    cg2d_b (SOLVE_FOR_PRESSURE) S.D.=  3.93360245792258E+03
 cg2d: Sum(rhs),rhsMax =   4.70542968297420E-01  1.60618362602207E+00
(PID.TID 0000.0001)  cg2d: iter=     1 ; resid.=  9.73548527664718E-02
(PID.TID 0000.0001)  cg2d: iter=     2 ; resid.=  7.14876835165180E-02
(PID.TID 0000.0001)  cg2d: iter=     3 ; resid.=  6.41034895023594E-02
(PID.TID 0000.0001)  cg2d: iter=     4 ; resid.=  6.07961232216845E-02
(PID.TID 0000.0001)  cg2d: iter=     5 ; resid.=  5.53855407380949E-02
(PID.TID 0000.0001)  cg2d: iter=     6 ; resid.=  5.06883019964548E-02
(PID.TID 0000.0001)  cg2d: iter=     7 ; resid.=  4.39590376620438E-02
(PID.TID 0000.0001)  cg2d: iter=     8 ; resid.=  3.36556913541742E-02
(PID.TID 0000.0001)  cg2d: iter=     9 ; resid.=  2.73750619418117E-02
(PID.TID 0000.0001)  cg2d: iter=    10 ; resid.=  2.03388786520531E-02
(PID.TID 0000.0001)  cg2d: iter=    11 ; resid.=  1.71424082221266E-02
(PID.TID 0000.0001)  cg2d: iter=    12 ; resid.=  1.48494303541213E-02
(PID.TID 0000.0001)  cg2d: iter=    13 ; resid.=  1.15813838308690E-02
(PID.TID 0000.0001)  cg2d: iter=    14 ; resid.=  9.60670200747943E-03
(PID.TID 0000.0001)  cg2d: iter=    15 ; resid.=  7.72668055693567E-03
(PID.TID 0000.0001)  cg2d: iter=    16 ; resid.=  6.60426300435006E-03
(PID.TID 0000.0001)  cg2d: iter=    17 ; resid.=  5.95494098134417E-03
(PID.TID 0000.0001)  cg2d: iter=    18 ; resid.=  5.50653568059956E-03
(PID.TID 0000.0001)  cg2d: iter=    19 ; resid.=  4.38984585111502E-03
(PID.TID 0000.0001)  cg2d: iter=    20 ; resid.=  3.21478544498936E-03
(PID.TID 0000.0001)  cg2d: iter=    21 ; resid.=  2.65834589371790E-03
(PID.TID 0000.0001)  cg2d: iter=    22 ; resid.=  2.32475197498560E-03
(PID.TID 0000.0001)  cg2d: iter=    23 ; resid.=  2.04546488041220E-03
(PID.TID 0000.0001)  cg2d: iter=    24 ; resid.=  1.69158904339608E-03
(PID.TID 0000.0001)  cg2d: iter=    25 ; resid.=  1.39669220592609E-03
(PID.TID 0000.0001)  cg2d: iter=    26 ; resid.=  1.14152630996614E-03
(PID.TID 0000.0001)  cg2d: iter=    27 ; resid.=  8.95059387893082E-04
(PID.TID 0000.0001)  cg2d: iter=    28 ; resid.=  7.26660116104357E-04
(PID.TID 0000.0001)  cg2d: iter=    29 ; resid.=  6.06947674239978E-04
(PID.TID 0000.0001)  cg2d: iter=    30 ; resid.=  5.02964995226290E-04
(PID.TID 0000.0001)  cg2d: iter=    31 ; resid.=  4.19726624848018E-04
(PID.TID 0000.0001)  cg2d: iter=    32 ; resid.=  3.10299738142827E-04
(PID.TID 0000.0001)  cg2d: iter=    33 ; resid.=  2.45678909699908E-04
(PID.TID 0000.0001)  cg2d: iter=    34 ; resid.=  2.04697655873130E-04
(PID.TID 0000.0001)  cg2d: iter=    35 ; resid.=  1.78956825695378E-04
(PID.TID 0000.0001)  cg2d: iter=    36 ; resid.=  1.56485121284806E-04
(PID.TID 0000.0001)  cg2d: iter=    37 ; resid.=  1.28164421268443E-04
(PID.TID 0000.0001)  cg2d: iter=    38 ; resid.=  1.12253197222928E-04
(PID.TID 0000.0001)  cg2d: iter=    39 ; resid.=  9.74447391626411E-05
(PID.TID 0000.0001)  cg2d: iter=    40 ; resid.=  8.49839899960868E-05
(PID.TID 0000.0001)  cg2d: iter=    41 ; resid.=  7.14017817887146E-05
(PID.TID 0000.0001)  cg2d: iter=    42 ; resid.=  6.28461812790234E-05
(PID.TID 0000.0001)  cg2d: iter=    43 ; resid.=  5.10864225473100E-05
(PID.TID 0000.0001)  cg2d: iter=    44 ; resid.=  3.95291465419204E-05
(PID.TID 0000.0001)  cg2d: iter=    45 ; resid.=  3.34306490378141E-05
(PID.TID 0000.0001)  cg2d: iter=    46 ; resid.=  2.64739799627774E-05
(PID.TID 0000.0001)  cg2d: iter=    47 ; resid.=  2.17500912422391E-05
(PID.TID 0000.0001)  cg2d: iter=    48 ; resid.=  1.84665685839300E-05
(PID.TID 0000.0001)  cg2d: iter=    49 ; resid.=  1.57200388467760E-05
(PID.TID 0000.0001)  cg2d: iter=    50 ; resid.=  1.39077142445984E-05
(PID.TID 0000.0001)  cg2d: iter=    51 ; resid.=  1.22716101304259E-05
(PID.TID 0000.0001)  cg2d: iter=    52 ; resid.=  1.06404188828362E-05
(PID.TID 0000.0001)  cg2d: iter=    53 ; resid.=  8.75735129652092E-06
(PID.TID 0000.0001)  cg2d: iter=    54 ; resid.=  6.95594089056865E-06
(PID.TID 0000.0001)  cg2d: iter=    55 ; resid.=  5.75228162159750E-06
(PID.TID 0000.0001)  cg2d: iter=    56 ; resid.=  4.65254608605969E-06
(PID.TID 0000.0001)  cg2d: iter=    57 ; resid.=  4.26325982008786E-06
(PID.TID 0000.0001)  cg2d: iter=    58 ; resid.=  3.50090951210988E-06
(PID.TID 0000.0001)  cg2d: iter=    59 ; resid.=  2.83621888468318E-06
(PID.TID 0000.0001)  cg2d: iter=    60 ; resid.=  2.27330408936232E-06
(PID.TID 0000.0001)  cg2d: iter=    61 ; resid.=  1.89065435047985E-06
(PID.TID 0000.0001)  cg2d: iter=    62 ; resid.=  1.60906488323840E-06
(PID.TID 0000.0001)  cg2d: iter=    63 ; resid.=  1.40242482247896E-06
(PID.TID 0000.0001)  cg2d: iter=    64 ; resid.=  1.15116494247686E-06
(PID.TID 0000.0001)  cg2d: iter=    65 ; resid.=  8.78925689657192E-07
(PID.TID 0000.0001)  cg2d: iter=    66 ; resid.=  7.16518777195306E-07
(PID.TID 0000.0001)  cg2d: iter=    67 ; resid.=  5.73694298145530E-07
(PID.TID 0000.0001)  cg2d: iter=    68 ; resid.=  4.90285713700757E-07
(PID.TID 0000.0001)  cg2d: iter=    69 ; resid.=  4.25110754005341E-07
(PID.TID 0000.0001)  cg2d: iter=    70 ; resid.=  3.53558790247723E-07
(PID.TID 0000.0001)  cg2d: iter=    71 ; resid.=  2.89285704146506E-07
(PID.TID 0000.0001)  cg2d: iter=    72 ; resid.=  2.44968337757225E-07
(PID.TID 0000.0001)  cg2d: iter=    73 ; resid.=  2.26239561116031E-07
(PID.TID 0000.0001)  cg2d: iter=    74 ; resid.=  2.01670877216060E-07
(PID.TID 0000.0001)  cg2d: iter=    75 ; resid.=  1.62187632855028E-07
(PID.TID 0000.0001)  cg2d: iter=    76 ; resid.=  1.31292575942420E-07
(PID.TID 0000.0001)  cg2d: iter=    77 ; resid.=  1.06015959696080E-07
(PID.TID 0000.0001)  cg2d: iter=    78 ; resid.=  8.25036381079681E-08
(PID.TID 0000.0001)  cg2d: iter=    79 ; resid.=  7.09242661351224E-08
(PID.TID 0000.0001)  cg2d: iter=    80 ; resid.=  5.68170570411023E-08
(PID.TID 0000.0001)  cg2d: iter=    81 ; resid.=  4.42109749332456E-08
(PID.TID 0000.0001)  cg2d: iter=    82 ; resid.=  3.11794448960801E-08
(PID.TID 0000.0001)  cg2d: iter=    83 ; resid.=  2.29508901975214E-08
(PID.TID 0000.0001)  cg2d: iter=    84 ; resid.=  1.71217944054038E-08
(PID.TID 0000.0001)  cg2d: iter=    85 ; resid.=  1.22294397067610E-08
(PID.TID 0000.0001)  cg2d: iter=    86 ; resid.=  9.56754814560887E-09
(PID.TID 0000.0001)  cg2d: iter=    87 ; resid.=  7.77515833965621E-09
(PID.TID 0000.0001)  cg2d: iter=    88 ; resid.=  6.07261692085779E-09
(PID.TID 0000.0001)  cg2d: iter=    89 ; resid.=  5.31689732205448E-09
(PID.TID 0000.0001)  cg2d: iter=    90 ; resid.=  4.66148341242494E-09
(PID.TID 0000.0001)  cg2d: iter=    91 ; resid.=  3.54229751754846E-09
(PID.TID 0000.0001)  cg2d: iter=    92 ; resid.=  2.54006055037326E-09
(PID.TID 0000.0001)  cg2d: iter=    93 ; resid.=  2.04821615176334E-09
(PID.TID 0000.0001)  cg2d: iter=    94 ; resid.=  1.61437680756596E-09
(PID.TID 0000.0001)  cg2d: iter=    95 ; resid.=  1.30165713342539E-09
(PID.TID 0000.0001)  cg2d: iter=    96 ; resid.=  1.03908099056381E-09
(PID.TID 0000.0001)  cg2d: iter=    97 ; resid.=  8.09353497400414E-10
(PID.TID 0000.0001)  cg2d: iter=    98 ; resid.=  6.34860772865270E-10
(PID.TID 0000.0001)  cg2d: iter=    99 ; resid.=  5.07385752217101E-10
(PID.TID 0000.0001)  cg2d: iter=   100 ; resid.=  5.06506741209288E-10
(PID.TID 0000.0001)  cg2d: iter=   101 ; resid.=  4.03701809835190E-10
(PID.TID 0000.0001)  cg2d: iter=   102 ; resid.=  3.28224815230503E-10
(PID.TID 0000.0001)  cg2d: iter=   103 ; resid.=  2.73744868706823E-10
(PID.TID 0000.0001)  cg2d: iter=   104 ; resid.=  2.09003914385928E-10
(PID.TID 0000.0001)  cg2d: iter=   105 ; resid.=  1.68590021927054E-10
(PID.TID 0000.0001)  cg2d: iter=   106 ; resid.=  1.41592308439088E-10
(PID.TID 0000.0001)  cg2d: iter=   107 ; resid.=  1.07839501314350E-10
(PID.TID 0000.0001)  cg2d: iter=   108 ; resid.=  8.68116517506835E-11
(PID.TID 0000.0001)  cg2d: iter=   109 ; resid.=  6.65920190467705E-11
(PID.TID 0000.0001)  cg2d: iter=   110 ; resid.=  4.51016712924588E-11
(PID.TID 0000.0001)  cg2d: iter=   111 ; resid.=  3.36227437904581E-11
(PID.TID 0000.0001)  cg2d: iter=   112 ; resid.=  2.56044373552892E-11
(PID.TID 0000.0001)  cg2d: iter=   113 ; resid.=  1.99702690578330E-11
(PID.TID 0000.0001)  cg2d: iter=   114 ; resid.=  1.54176476336135E-11
(PID.TID 0000.0001)  cg2d: iter=   115 ; resid.=  1.25560464760863E-11
(PID.TID 0000.0001)  cg2d: iter=   116 ; resid.=  9.29591806160525E-12
(PID.TID 0000.0001)  cg2d: iter=   117 ; resid.=  7.25063465705181E-12
(PID.TID 0000.0001)  cg2d: iter=   118 ; resid.=  5.45979439070330E-12
(PID.TID 0000.0001)  cg2d: iter=   119 ; resid.=  4.15174955257161E-12
(PID.TID 0000.0001)  cg2d: iter=   120 ; resid.=  2.90276086143828E-12
(PID.TID 0000.0001)  cg2d: iter=   121 ; resid.=  2.25187509690216E-12
(PID.TID 0000.0001)  cg2d: iter=   122 ; resid.=  1.83047652584050E-12
(PID.TID 0000.0001)  cg2d: iter=   123 ; resid.=  1.33566408487526E-12
(PID.TID 0000.0001)  cg2d: iter=   124 ; resid.=  9.92536388113518E-13
(PID.TID 0000.0001)  cg2d: iter=   125 ; resid.=  7.23866460636651E-13
(PID.TID 0000.0001)  cg2d: iter=   126 ; resid.=  5.01108702540499E-13
(PID.TID 0000.0001)  cg2d: iter=   127 ; resid.=  3.48835520975053E-13
(PID.TID 0000.0001)  cg2d: iter=   128 ; resid.=  2.43590966112992E-13
(PID.TID 0000.0001)  cg2d: iter=   129 ; resid.=  1.78229494708288E-13
(PID.TID 0000.0001)  cg2d: iter=   130 ; resid.=  1.27709826633167E-13
(PID.TID 0000.0001)  cg2d: iter=   131 ; resid.=  9.40483389268422E-14
DEBUG_STATS_RL:    cg2d_x (SOLVE_FOR_PRESSURE)  min= -1.91403374020618E+01
DEBUG_STATS_RL:    cg2d_x (SOLVE_FOR_PRESSURE)  max=  9.99347930425032E+00
DEBUG_STATS_RL:    cg2d_x (SOLVE_FOR_PRESSURE) mean= -1.91851927821338E+00
DEBUG_STATS_RL:    cg2d_x (SOLVE_FOR_PRESSURE) S.D.=  7.65088325672871E+00
(PID.TID 0000.0001)      cg2d_init_res =   2.66418208633112E-01
(PID.TID 0000.0001)      cg2d_iters(min,last) =      -1     131
(PID.TID 0000.0001)      cg2d_last_res =   9.40483389268422E-14
(PID.TID 0000.0001) // =======================================================
(PID.TID 0000.0001) // Begin MONITOR dynamic field statistics
(PID.TID 0000.0001) // =======================================================
(PID.TID 0000.0001) %MON time_tsnumber                =                    73
(PID.TID 0000.0001) %MON time_secondsf                =   6.3072000000000E+06
(PID.TID 0000.0001) %MON dynstat_eta_max              =   1.0187032929920E+00
(PID.TID 0000.0001) %MON dynstat_eta_min              =  -1.9511047300779E+00
(PID.TID 0000.0001) %MON dynstat_eta_mean             =  -5.1860115957334E-03
(PID.TID 0000.0001) %MON dynstat_eta_sd               =   6.8558950818400E-01
(PID.TID 0000.0001) %MON dynstat_eta_del2             =   2.4258858616288E-03
(PID.TID 0000.0001) %MON dynstat_uvel_max             =   1.4645962971780E-01
(PID.TID 0000.0001) %MON dynstat_uvel_min             =  -1.1848529880008E-01
(PID.TID 0000.0001) %MON dynstat_uvel_mean            =   2.4177264645747E-03
(PID.TID 0000.0001) %MON dynstat_uvel_sd              =   1.4465296000067E-02
(PID.TID 0000.0001) %MON dynstat_uvel_del2            =   8.8978748895932E-05
(PID.TID 0000.0001) %MON dynstat_vvel_max             =   1.4957506909441E-01
(PID.TID 0000.0001) %MON dynstat_vvel_min             =  -8.2256078252130E-02
(PID.TID 0000.0001) %MON dynstat_vvel_mean            =  -5.8167790617954E-05
(PID.TID 0000.0001) %MON dynstat_vvel_sd              =   8.3747034135029E-03
(PID.TID 0000.0001) %MON dynstat_vvel_del2            =   7.4143253463978E-05
(PID.TID 0000.0001) %MON dynstat_wvel_max             =   1.3283259017911E-04
(PID.TID 0000.0001) %MON dynstat_wvel_min             =  -7.8927908007967E-05
(PID.TID 0000.0001) %MON dynstat_wvel_mean            =   2.4796247194500E-22
(PID.TID 0000.0001) %MON dynstat_wvel_sd              =   1.0769496224659E-05
(PID.TID 0000.0001) %MON dynstat_wvel_del2            =   1.0637015698898E-07
(PID.TID 0000.0001) %MON dynstat_theta_max            =   3.0857250605629E+01
(PID.TID 0000.0001) %MON dynstat_theta_min            =  -1.9510409340134E+00
(PID.TID 0000.0001) %MON dynstat_theta_mean           =   3.6338289811500E+00
(PID.TID 0000.0001) %MON dynstat_theta_sd             =   4.4262215284193E+00
(PID.TID 0000.0001) %MON dynstat_theta_del2           =   4.8659421178624E-03
(PID.TID 0000.0001) %MON dynstat_salt_max             =   3.7475818552279E+01
(PID.TID 0000.0001) %MON dynstat_salt_min             =   2.9906604009485E+01
(PID.TID 0000.0001) %MON dynstat_salt_mean            =   3.4728008826651E+01
(PID.TID 0000.0001) %MON dynstat_salt_sd              =   2.9654837594458E-01
(PID.TID 0000.0001) %MON dynstat_salt_del2            =   9.8980353386065E-04
(PID.TID 0000.0001) %MON dynstat_sst_max              =   3.0857250605629E+01
(PID.TID 0000.0001) %MON dynstat_sst_min              =  -1.9510409340134E+00
(PID.TID 0000.0001) %MON dynstat_sst_mean             =   1.9055765994627E+01
(PID.TID 0000.0001) %MON dynstat_sst_sd               =   9.1283447793623E+00
(PID.TID 0000.0001) %MON dynstat_sst_del2             =   2.8499767075418E-02
(PID.TID 0000.0001) %MON dynstat_sss_max              =   3.7465545775935E+01
(PID.TID 0000.0001) %MON dynstat_sss_min              =   2.9906604009485E+01
(PID.TID 0000.0001) %MON dynstat_sss_mean             =   3.4847921823206E+01
(PID.TID 0000.0001) %MON dynstat_sss_sd               =   9.8458073614318E-01
(PID.TID 0000.0001) %MON dynstat_sss_del2             =   8.1124054304598E-03
(PID.TID 0000.0001) %MON forcing_qnet_max             =   2.8290214538574E+02
(PID.TID 0000.0001) %MON forcing_qnet_min             =  -1.6475342864990E+02
(PID.TID 0000.0001) %MON forcing_qnet_mean            =  -7.9350844890245E+00
(PID.TID 0000.0001) %MON forcing_qnet_sd              =   4.8359280419463E+01
(PID.TID 0000.0001) %MON forcing_qnet_del2            =   8.5469072359426E-01
(PID.TID 0000.0001) %MON forcing_qsw_max              =   0.0000000000000E+00
(PID.TID 0000.0001) %MON forcing_qsw_min              =   0.0000000000000E+00
(PID.TID 0000.0001) %MON forcing_qsw_mean             =   0.0000000000000E+00
(PID.TID 0000.0001) %MON forcing_qsw_sd               =   0.0000000000000E+00
(PID.TID 0000.0001) %MON forcing_qsw_del2             =   0.0000000000000E+00
(PID.TID 0000.0001) %MON forcing_empmr_max            =   6.9126090807003E-05
(PID.TID 0000.0001) %MON forcing_empmr_min            =  -8.2066878803744E-05
(PID.TID 0000.0001) %MON forcing_empmr_mean           =   5.8998084630176E-07
(PID.TID 0000.0001) %MON forcing_empmr_sd             =   2.6360875711591E-05
(PID.TID 0000.0001) %MON forcing_empmr_del2           =   3.6293820427634E-07
(PID.TID 0000.0001) %MON forcing_fu_max               =   3.5172714889050E-01
(PID.TID 0000.0001) %MON forcing_fu_min               =  -3.6944006383419E-01
(PID.TID 0000.0001) %MON forcing_fu_mean              =   2.0174130532013E-02
(PID.TID 0000.0001) %MON forcing_fu_sd                =   1.0044956754346E-01
(PID.TID 0000.0001) %MON forcing_fu_del2              =   8.1088351437561E-04
(PID.TID 0000.0001) %MON forcing_fv_max               =   1.7182487472892E-01
(PID.TID 0000.0001) %MON forcing_fv_min               =  -1.8883825689554E-01
(PID.TID 0000.0001) %MON forcing_fv_mean              =  -7.4982903901361E-03
(PID.TID 0000.0001) %MON forcing_fv_sd                =   4.2208471990419E-02
(PID.TID 0000.0001) %MON forcing_fv_del2              =   4.9097367067402E-04
(PID.TID 0000.0001) %MON trAdv_CFL_u_max              =   4.8899036305873E-02
(PID.TID 0000.0001) %MON trAdv_CFL_v_max              =   2.9096660921699E-02
(PID.TID 0000.0001) %MON trAdv_CFL_w_max              =   3.2770041821259E-02
(PID.TID 0000.0001) %MON advcfl_uvel_max              =   4.8410124298169E-02
(PID.TID 0000.0001) %MON advcfl_vvel_max              =   2.9060037029345E-02
(PID.TID 0000.0001) %MON advcfl_wvel_max              =   3.1443111757467E-02
(PID.TID 0000.0001) %MON advcfl_W_hf_max              =   3.6857259632364E-02
(PID.TID 0000.0001) %MON pe_b_mean                    =   6.0149825932611E-04
(PID.TID 0000.0001) %MON ke_max                       =   1.3607119080230E-02
(PID.TID 0000.0001) %MON ke_mean                      =   1.2920721816030E-04
(PID.TID 0000.0001) %MON ke_vol                       =   1.3226782436723E+18
(PID.TID 0000.0001) %MON vort_r_min                   =  -3.1552150597253E-07
(PID.TID 0000.0001) %MON vort_r_max                   =   4.0256047044578E-07
(PID.TID 0000.0001) %MON vort_a_mean                  =  -2.5274806759563E-05
(PID.TID 0000.0001) %MON vort_a_sd                    =   7.3604677301721E-05
(PID.TID 0000.0001) %MON vort_p_mean                  =  -3.1845654995748E-05
(PID.TID 0000.0001) %MON vort_p_sd                    =   1.3162506140153E-04
(PID.TID 0000.0001) %MON surfExpan_theta_mean         =   3.3277584762295E-07
(PID.TID 0000.0001) %MON surfExpan_salt_mean          =  -4.9189258522603E-08
(PID.TID 0000.0001) // =======================================================
(PID.TID 0000.0001) // End MONITOR dynamic field statistics
(PID.TID 0000.0001) // =======================================================
 EXTERNAL_FIELDS_LOAD,        73 : iP,iLd,i0,i1=    2    3    2    3 ; Wght=  0.0666666667  0.9333333333
 EXTERNAL_FIELDS_LOAD: (fu0,1),fu,fv= -1.4435E-02 -2.7199E-02 -2.6348E-02 -1.7152E-03
 EXTERNAL_FIELDS_LOAD: SST,SSS,Q,E-P= -2.0710E-01  3.4569E+01  2.1707E+02  9.0339E-06
DEBUG_STATS_RL:          Uvel (THERMODYNAMICS)  min= -1.18485298800077E-01
DEBUG_STATS_RL:          Uvel (THERMODYNAMICS)  max=  1.46459629717797E-01
DEBUG_STATS_RL:          Uvel (THERMODYNAMICS) mean=  6.18386195915120E-03
DEBUG_STATS_RL:          Uvel (THERMODYNAMICS) S.D.=  2.26195426097912E-02
DEBUG_STATS_RL:          Vvel (THERMODYNAMICS)  min= -8.22560782521296E-02
DEBUG_STATS_RL:          Vvel (THERMODYNAMICS)  max=  1.49575069094411E-01
DEBUG_STATS_RL:          Vvel (THERMODYNAMICS) mean=  6.44861803069957E-04
DEBUG_STATS_RL:          Vvel (THERMODYNAMICS) S.D.=  1.35144850612649E-02
DEBUG_STATS_RL:          Wvel (THERMODYNAMICS)  min= -7.89279080079672E-05
DEBUG_STATS_RL:          Wvel (THERMODYNAMICS)  max=  1.32832590179112E-04
DEBUG_STATS_RL:          Wvel (THERMODYNAMICS) mean= -6.30758508074748E-08
DEBUG_STATS_RL:          Wvel (THERMODYNAMICS) S.D.=  9.49915435560914E-06
DEBUG_STATS_RL:         Theta (THERMODYNAMICS)  min= -1.95045760310739E+00
DEBUG_STATS_RL:         Theta (THERMODYNAMICS)  max=  3.08812742682487E+01
DEBUG_STATS_RL:         Theta (THERMODYNAMICS) mean=  3.23118989894077E+00
DEBUG_STATS_RL:         Theta (THERMODYNAMICS) S.D.=  5.88383725748811E+00
DEBUG_STATS_RL:          Salt (THERMODYNAMICS)  min=  9.99999999999997E-03
DEBUG_STATS_RL:          Salt (THERMODYNAMICS)  max=  3.74754438836476E+01
DEBUG_STATS_RL:          Salt (THERMODYNAMICS) mean=  1.88547416294526E+01
DEBUG_STATS_RL:          Salt (THERMODYNAMICS) S.D.=  1.73002877894124E+01
DEBUG_STATS_RL:         GtNm1 (THERMODYNAMICS)  min= -4.57887991652336E-06
DEBUG_STATS_RL:         GtNm1 (THERMODYNAMICS)  max=  2.37887573339154E-06
DEBUG_STATS_RL:         GtNm1 (THERMODYNAMICS) mean=  2.33993206752219E-09
DEBUG_STATS_RL:         GtNm1 (THERMODYNAMICS) S.D.=  1.51086297550816E-07
DEBUG_STATS_RL:         GsNm1 (THERMODYNAMICS)  min= -4.44936386337327E-07
DEBUG_STATS_RL:         GsNm1 (THERMODYNAMICS)  max=  2.94732020709683E-07
DEBUG_STATS_RL:         GsNm1 (THERMODYNAMICS) mean= -3.85157976490884E-12
DEBUG_STATS_RL:         GsNm1 (THERMODYNAMICS) S.D.=  1.38270693731784E-08
DEBUG_STATS_RL:                EtaN (DYNAMICS)  min= -1.95110473007788E+00
DEBUG_STATS_RL:                EtaN (DYNAMICS)  max=  1.01870329299196E+00
DEBUG_STATS_RL:                EtaN (DYNAMICS) mean= -1.95567714394837E-01
DEBUG_STATS_RL:                EtaN (DYNAMICS) S.D.=  7.79906550125251E-01
DEBUG_STATS_RL:                Uvel (DYNAMICS)  min= -1.18485298800077E-01
DEBUG_STATS_RL:                Uvel (DYNAMICS)  max=  1.46459629717797E-01
DEBUG_STATS_RL:                Uvel (DYNAMICS) mean=  6.18386195915120E-03
DEBUG_STATS_RL:                Uvel (DYNAMICS) S.D.=  2.26195426097912E-02
DEBUG_STATS_RL:                Vvel (DYNAMICS)  min= -8.22560782521296E-02
DEBUG_STATS_RL:                Vvel (DYNAMICS)  max=  1.49575069094411E-01
DEBUG_STATS_RL:                Vvel (DYNAMICS) mean=  6.44861803069957E-04
DEBUG_STATS_RL:                Vvel (DYNAMICS) S.D.=  1.35144850612649E-02
DEBUG_STATS_RL:                Wvel (DYNAMICS)  min= -7.89279080079672E-05
DEBUG_STATS_RL:                Wvel (DYNAMICS)  max=  1.32832590179112E-04
DEBUG_STATS_RL:                Wvel (DYNAMICS) mean= -6.30758508074748E-08
DEBUG_STATS_RL:                Wvel (DYNAMICS) S.D.=  9.49915435560914E-06
DEBUG_STATS_RL:               Theta (DYNAMICS)  min= -1.95045760310739E+00
DEBUG_STATS_RL:               Theta (DYNAMICS)  max=  3.08812742682487E+01
DEBUG_STATS_RL:               Theta (DYNAMICS) mean=  3.23118989894077E+00
DEBUG_STATS_RL:               Theta (DYNAMICS) S.D.=  5.88383725748811E+00
DEBUG_STATS_RL:                Salt (DYNAMICS)  min=  9.99999999999997E-03
DEBUG_STATS_RL:                Salt (DYNAMICS)  max=  3.74754438836476E+01
DEBUG_STATS_RL:                Salt (DYNAMICS) mean=  1.88547416294526E+01
DEBUG_STATS_RL:                Salt (DYNAMICS) S.D.=  1.73002877894124E+01
DEBUG_STATS_RL:                  Gu (DYNAMICS)  min= -1.18203997417852E-01
DEBUG_STATS_RL:                  Gu (DYNAMICS)  max=  1.43762784986823E-01
DEBUG_STATS_RL:                  Gu (DYNAMICS) mean=  6.15298133544068E-03
DEBUG_STATS_RL:                  Gu (DYNAMICS) S.D.=  2.30835395894940E-02
DEBUG_STATS_RL:                  Gv (DYNAMICS)  min= -8.71725625168907E-02
DEBUG_STATS_RL:                  Gv (DYNAMICS)  max=  1.49775848839349E-01
DEBUG_STATS_RL:                  Gv (DYNAMICS) mean=  3.40348137516953E-03
DEBUG_STATS_RL:                  Gv (DYNAMICS) S.D.=  1.48393585162762E-02
DEBUG_STATS_RL:               GuNm1 (DYNAMICS)  min= -1.03285809527601E-05
DEBUG_STATS_RL:               GuNm1 (DYNAMICS)  max=  9.31327509578281E-06
DEBUG_STATS_RL:               GuNm1 (DYNAMICS) mean=  7.51709717010706E-09
DEBUG_STATS_RL:               GuNm1 (DYNAMICS) S.D.=  1.21468763647284E-06
DEBUG_STATS_RL:               GvNm1 (DYNAMICS)  min= -1.00334419721646E-05
DEBUG_STATS_RL:               GvNm1 (DYNAMICS)  max=  1.56082973228908E-05
DEBUG_STATS_RL:               GvNm1 (DYNAMICS) mean=  7.37743090155521E-07
DEBUG_STATS_RL:               GvNm1 (DYNAMICS) S.D.=  2.62705921544562E-06
DEBUG_STATS_RL:               GtNm1 (DYNAMICS)  min= -4.57887991652336E-06
DEBUG_STATS_RL:               GtNm1 (DYNAMICS)  max=  2.37887573339154E-06
DEBUG_STATS_RL:               GtNm1 (DYNAMICS) mean=  2.33993206752219E-09
DEBUG_STATS_RL:               GtNm1 (DYNAMICS) S.D.=  1.51086297550816E-07
DEBUG_STATS_RL:               GsNm1 (DYNAMICS)  min= -4.44936386337327E-07
DEBUG_STATS_RL:               GsNm1 (DYNAMICS)  max=  2.94732020709683E-07
DEBUG_STATS_RL:               GsNm1 (DYNAMICS) mean= -3.85157976490884E-12
DEBUG_STATS_RL:               GsNm1 (DYNAMICS) S.D.=  1.38270693731784E-08
DEBUG_STATS_RL:    cg2d_b (SOLVE_FOR_PRESSURE)  min= -2.12335926718482E+04
DEBUG_STATS_RL:    cg2d_b (SOLVE_FOR_PRESSURE)  max=  2.43656191881518E+04
DEBUG_STATS_RL:    cg2d_b (SOLVE_FOR_PRESSURE) mean=  5.01657065672306E+00
DEBUG_STATS_RL:    cg2d_b (SOLVE_FOR_PRESSURE) S.D.=  3.93617964164522E+03
 cg2d: Sum(rhs),rhsMax =   4.76629014868702E-01  1.60039910541311E+00
(PID.TID 0000.0001)  cg2d: iter=     1 ; resid.=  9.59076104577297E-02
(PID.TID 0000.0001)  cg2d: iter=     2 ; resid.=  6.61340188833466E-02
(PID.TID 0000.0001)  cg2d: iter=     3 ; resid.=  5.70704064423436E-02
(PID.TID 0000.0001)  cg2d: iter=     4 ; resid.=  5.41348578024837E-02
(PID.TID 0000.0001)  cg2d: iter=     5 ; resid.=  4.80210017535006E-02
(PID.TID 0000.0001)  cg2d: iter=     6 ; resid.=  4.28989731536247E-02
(PID.TID 0000.0001)  cg2d: iter=     7 ; resid.=  3.78110730680439E-02
(PID.TID 0000.0001)  cg2d: iter=     8 ; resid.=  2.98456834372588E-02
(PID.TID 0000.0001)  cg2d: iter=     9 ; resid.=  2.50678777686412E-02
(PID.TID 0000.0001)  cg2d: iter=    10 ; resid.=  1.93545411313923E-02
(PID.TID 0000.0001)  cg2d: iter=    11 ; resid.=  1.62517814068308E-02
(PID.TID 0000.0001)  cg2d: iter=    12 ; resid.=  1.38852425351391E-02
(PID.TID 0000.0001)  cg2d: iter=    13 ; resid.=  1.05625770848130E-02
(PID.TID 0000.0001)  cg2d: iter=    14 ; resid.=  8.61916798027089E-03
(PID.TID 0000.0001)  cg2d: iter=    15 ; resid.=  6.92535657159994E-03
(PID.TID 0000.0001)  cg2d: iter=    16 ; resid.=  5.85465735075000E-03
(PID.TID 0000.0001)  cg2d: iter=    17 ; resid.=  5.23381486572378E-03
(PID.TID 0000.0001)  cg2d: iter=    18 ; resid.=  4.88865760266504E-03
(PID.TID 0000.0001)  cg2d: iter=    19 ; resid.=  3.97636263077588E-03
(PID.TID 0000.0001)  cg2d: iter=    20 ; resid.=  2.96477495215114E-03
(PID.TID 0000.0001)  cg2d: iter=    21 ; resid.=  2.43214209637323E-03
(PID.TID 0000.0001)  cg2d: iter=    22 ; resid.=  2.12919988446002E-03
(PID.TID 0000.0001)  cg2d: iter=    23 ; resid.=  1.88305552038393E-03
(PID.TID 0000.0001)  cg2d: iter=    24 ; resid.=  1.52808954913383E-03
(PID.TID 0000.0001)  cg2d: iter=    25 ; resid.=  1.24602574618290E-03
(PID.TID 0000.0001)  cg2d: iter=    26 ; resid.=  1.02600976467816E-03
(PID.TID 0000.0001)  cg2d: iter=    27 ; resid.=  8.14654336627072E-04
(PID.TID 0000.0001)  cg2d: iter=    28 ; resid.=  6.81973772656055E-04
(PID.TID 0000.0001)  cg2d: iter=    29 ; resid.=  5.81835320796135E-04
(PID.TID 0000.0001)  cg2d: iter=    30 ; resid.=  4.92208627630971E-04
(PID.TID 0000.0001)  cg2d: iter=    31 ; resid.=  4.10968856129892E-04
(PID.TID 0000.0001)  cg2d: iter=    32 ; resid.=  3.05372300900706E-04
(PID.TID 0000.0001)  cg2d: iter=    33 ; resid.=  2.43630884703747E-04
(PID.TID 0000.0001)  cg2d: iter=    34 ; resid.=  2.01875237432334E-04
(PID.TID 0000.0001)  cg2d: iter=    35 ; resid.=  1.75131372483494E-04
(PID.TID 0000.0001)  cg2d: iter=    36 ; resid.=  1.52946500058066E-04
(PID.TID 0000.0001)  cg2d: iter=    37 ; resid.=  1.26835975007965E-04
(PID.TID 0000.0001)  cg2d: iter=    38 ; resid.=  1.09750072343886E-04
(PID.TID 0000.0001)  cg2d: iter=    39 ; resid.=  9.52158074330352E-05
(PID.TID 0000.0001)  cg2d: iter=    40 ; resid.=  8.35480188966791E-05
(PID.TID 0000.0001)  cg2d: iter=    41 ; resid.=  7.12846925664384E-05
(PID.TID 0000.0001)  cg2d: iter=    42 ; resid.=  6.36846932648072E-05
(PID.TID 0000.0001)  cg2d: iter=    43 ; resid.=  5.28385131234442E-05
(PID.TID 0000.0001)  cg2d: iter=    44 ; resid.=  4.12604548696626E-05
(PID.TID 0000.0001)  cg2d: iter=    45 ; resid.=  3.40124717904895E-05
(PID.TID 0000.0001)  cg2d: iter=    46 ; resid.=  2.68594660729882E-05
(PID.TID 0000.0001)  cg2d: iter=    47 ; resid.=  2.20179558665858E-05
(PID.TID 0000.0001)  cg2d: iter=    48 ; resid.=  1.87303285085771E-05
(PID.TID 0000.0001)  cg2d: iter=    49 ; resid.=  1.58671978391012E-05
(PID.TID 0000.0001)  cg2d: iter=    50 ; resid.=  1.36097351763902E-05
(PID.TID 0000.0001)  cg2d: iter=    51 ; resid.=  1.18316574176920E-05
(PID.TID 0000.0001)  cg2d: iter=    52 ; resid.=  1.02254714137226E-05
(PID.TID 0000.0001)  cg2d: iter=    53 ; resid.=  8.54583737266630E-06
(PID.TID 0000.0001)  cg2d: iter=    54 ; resid.=  6.83224192632120E-06
(PID.TID 0000.0001)  cg2d: iter=    55 ; resid.=  5.70151335485683E-06
(PID.TID 0000.0001)  cg2d: iter=    56 ; resid.=  4.61600792298074E-06
(PID.TID 0000.0001)  cg2d: iter=    57 ; resid.=  4.16349879898064E-06
(PID.TID 0000.0001)  cg2d: iter=    58 ; resid.=  3.30778527082341E-06
(PID.TID 0000.0001)  cg2d: iter=    59 ; resid.=  2.65287021902983E-06
(PID.TID 0000.0001)  cg2d: iter=    60 ; resid.=  2.13896432326218E-06
(PID.TID 0000.0001)  cg2d: iter=    61 ; resid.=  1.79165316902830E-06
(PID.TID 0000.0001)  cg2d: iter=    62 ; resid.=  1.53300644710463E-06
(PID.TID 0000.0001)  cg2d: iter=    63 ; resid.=  1.35356856092736E-06
(PID.TID 0000.0001)  cg2d: iter=    64 ; resid.=  1.10950819350618E-06
(PID.TID 0000.0001)  cg2d: iter=    65 ; resid.=  8.48991779723227E-07
(PID.TID 0000.0001)  cg2d: iter=    66 ; resid.=  6.82886857142217E-07
(PID.TID 0000.0001)  cg2d: iter=    67 ; resid.=  5.44694684523215E-07
(PID.TID 0000.0001)  cg2d: iter=    68 ; resid.=  4.49632342479725E-07
(PID.TID 0000.0001)  cg2d: iter=    69 ; resid.=  3.76726415742964E-07
(PID.TID 0000.0001)  cg2d: iter=    70 ; resid.=  3.06307434159896E-07
(PID.TID 0000.0001)  cg2d: iter=    71 ; resid.=  2.50842578610874E-07
(PID.TID 0000.0001)  cg2d: iter=    72 ; resid.=  2.14935296884185E-07
(PID.TID 0000.0001)  cg2d: iter=    73 ; resid.=  2.00019753864762E-07
(PID.TID 0000.0001)  cg2d: iter=    74 ; resid.=  1.82961642997836E-07
(PID.TID 0000.0001)  cg2d: iter=    75 ; resid.=  1.48106829259464E-07
(PID.TID 0000.0001)  cg2d: iter=    76 ; resid.=  1.20205727933999E-07
(PID.TID 0000.0001)  cg2d: iter=    77 ; resid.=  9.81643901456004E-08
(PID.TID 0000.0001)  cg2d: iter=    78 ; resid.=  7.75097466949153E-08
(PID.TID 0000.0001)  cg2d: iter=    79 ; resid.=  6.73923156657579E-08
(PID.TID 0000.0001)  cg2d: iter=    80 ; resid.=  5.47223727277446E-08
(PID.TID 0000.0001)  cg2d: iter=    81 ; resid.=  4.28136780513271E-08
(PID.TID 0000.0001)  cg2d: iter=    82 ; resid.=  3.03363200599511E-08
(PID.TID 0000.0001)  cg2d: iter=    83 ; resid.=  2.26143733603809E-08
(PID.TID 0000.0001)  cg2d: iter=    84 ; resid.=  1.70898837970730E-08
(PID.TID 0000.0001)  cg2d: iter=    85 ; resid.=  1.23913819427704E-08
(PID.TID 0000.0001)  cg2d: iter=    86 ; resid.=  9.62265159435420E-09
(PID.TID 0000.0001)  cg2d: iter=    87 ; resid.=  7.85692623004427E-09
(PID.TID 0000.0001)  cg2d: iter=    88 ; resid.=  6.11709784699523E-09
(PID.TID 0000.0001)  cg2d: iter=    89 ; resid.=  5.25651881352451E-09
(PID.TID 0000.0001)  cg2d: iter=    90 ; resid.=  4.59650224423614E-09
(PID.TID 0000.0001)  cg2d: iter=    91 ; resid.=  3.42131212204627E-09
(PID.TID 0000.0001)  cg2d: iter=    92 ; resid.=  2.39603045700720E-09
(PID.TID 0000.0001)  cg2d: iter=    93 ; resid.=  1.84788594382962E-09
(PID.TID 0000.0001)  cg2d: iter=    94 ; resid.=  1.43894925173601E-09
(PID.TID 0000.0001)  cg2d: iter=    95 ; resid.=  1.15339828986359E-09
(PID.TID 0000.0001)  cg2d: iter=    96 ; resid.=  9.04856576583431E-10
(PID.TID 0000.0001)  cg2d: iter=    97 ; resid.=  7.08413635665880E-10
(PID.TID 0000.0001)  cg2d: iter=    98 ; resid.=  5.43774733568729E-10
(PID.TID 0000.0001)  cg2d: iter=    99 ; resid.=  4.25622176829399E-10
(PID.TID 0000.0001)  cg2d: iter=   100 ; resid.=  4.15913884923025E-10
(PID.TID 0000.0001)  cg2d: iter=   101 ; resid.=  3.40805402254226E-10
(PID.TID 0000.0001)  cg2d: iter=   102 ; resid.=  2.82409852917716E-10
(PID.TID 0000.0001)  cg2d: iter=   103 ; resid.=  2.35641384609308E-10
(PID.TID 0000.0001)  cg2d: iter=   104 ; resid.=  1.82278811277876E-10
(PID.TID 0000.0001)  cg2d: iter=   105 ; resid.=  1.47468268310068E-10
(PID.TID 0000.0001)  cg2d: iter=   106 ; resid.=  1.24764283302760E-10
(PID.TID 0000.0001)  cg2d: iter=   107 ; resid.=  9.69857948027720E-11
(PID.TID 0000.0001)  cg2d: iter=   108 ; resid.=  8.11199457625569E-11
(PID.TID 0000.0001)  cg2d: iter=   109 ; resid.=  6.32314982039956E-11
(PID.TID 0000.0001)  cg2d: iter=   110 ; resid.=  4.36825545312847E-11
(PID.TID 0000.0001)  cg2d: iter=   111 ; resid.=  3.33890284498199E-11
(PID.TID 0000.0001)  cg2d: iter=   112 ; resid.=  2.53537926144922E-11
(PID.TID 0000.0001)  cg2d: iter=   113 ; resid.=  2.03005874684493E-11
(PID.TID 0000.0001)  cg2d: iter=   114 ; resid.=  1.60358321958445E-11
(PID.TID 0000.0001)  cg2d: iter=   115 ; resid.=  1.30181342521266E-11
(PID.TID 0000.0001)  cg2d: iter=   116 ; resid.=  9.41330906418298E-12
(PID.TID 0000.0001)  cg2d: iter=   117 ; resid.=  7.14500359532651E-12
(PID.TID 0000.0001)  cg2d: iter=   118 ; resid.=  5.32695569365743E-12
(PID.TID 0000.0001)  cg2d: iter=   119 ; resid.=  4.07773884468404E-12
(PID.TID 0000.0001)  cg2d: iter=   120 ; resid.=  2.90847876822172E-12
(PID.TID 0000.0001)  cg2d: iter=   121 ; resid.=  2.31248377767988E-12
(PID.TID 0000.0001)  cg2d: iter=   122 ; resid.=  1.87599376470521E-12
(PID.TID 0000.0001)  cg2d: iter=   123 ; resid.=  1.36527850752629E-12
(PID.TID 0000.0001)  cg2d: iter=   124 ; resid.=  1.00390360661274E-12
(PID.TID 0000.0001)  cg2d: iter=   125 ; resid.=  7.19487433228209E-13
(PID.TID 0000.0001)  cg2d: iter=   126 ; resid.=  5.06477823572099E-13
(PID.TID 0000.0001)  cg2d: iter=   127 ; resid.=  3.65426491018742E-13
(PID.TID 0000.0001)  cg2d: iter=   128 ; resid.=  2.61502622618834E-13
(PID.TID 0000.0001)  cg2d: iter=   129 ; resid.=  1.90562583363662E-13
(PID.TID 0000.0001)  cg2d: iter=   130 ; resid.=  1.39129870726802E-13
(PID.TID 0000.0001)  cg2d: iter=   131 ; resid.=  1.01540120252529E-13
(PID.TID 0000.0001)  cg2d: iter=   132 ; resid.=  6.84893540513736E-14
DEBUG_STATS_RL:    cg2d_x (SOLVE_FOR_PRESSURE)  min= -1.92236610425592E+01
DEBUG_STATS_RL:    cg2d_x (SOLVE_FOR_PRESSURE)  max=  1.01216295322442E+01
DEBUG_STATS_RL:    cg2d_x (SOLVE_FOR_PRESSURE) mean= -1.93059962477101E+00
DEBUG_STATS_RL:    cg2d_x (SOLVE_FOR_PRESSURE) S.D.=  7.69816622357000E+00
(PID.TID 0000.0001)      cg2d_init_res =   2.65565399787448E-01
(PID.TID 0000.0001)      cg2d_iters(min,last) =      -1     132
(PID.TID 0000.0001)      cg2d_last_res =   6.84893540513736E-14
(PID.TID 0000.0001) // =======================================================
(PID.TID 0000.0001) // Begin MONITOR dynamic field statistics
(PID.TID 0000.0001) // =======================================================
(PID.TID 0000.0001) %MON time_tsnumber                =                    74
(PID.TID 0000.0001) %MON time_secondsf                =   6.3936000000000E+06
(PID.TID 0000.0001) %MON dynstat_eta_max              =   1.0317665170484E+00
(PID.TID 0000.0001) %MON dynstat_eta_min              =  -1.9595984752863E+00
(PID.TID 0000.0001) %MON dynstat_eta_mean             =  -5.2341694460644E-03
(PID.TID 0000.0001) %MON dynstat_eta_sd               =   6.9063277387502E-01
(PID.TID 0000.0001) %MON dynstat_eta_del2             =   2.4324983410054E-03
(PID.TID 0000.0001) %MON dynstat_uvel_max             =   1.4413697087277E-01
(PID.TID 0000.0001) %MON dynstat_uvel_min             =  -1.1870440148298E-01
(PID.TID 0000.0001) %MON dynstat_uvel_mean            =   2.4356238763512E-03
(PID.TID 0000.0001) %MON dynstat_uvel_sd              =   1.4503259298573E-02
(PID.TID 0000.0001) %MON dynstat_uvel_del2            =   8.9272356966418E-05
(PID.TID 0000.0001) %MON dynstat_vvel_max             =   1.4839126985001E-01
(PID.TID 0000.0001) %MON dynstat_vvel_min             =  -7.9954744114360E-02
(PID.TID 0000.0001) %MON dynstat_vvel_mean            =  -5.9896307352040E-05
(PID.TID 0000.0001) %MON dynstat_vvel_sd              =   8.3673093882734E-03
(PID.TID 0000.0001) %MON dynstat_vvel_del2            =   7.4236120612530E-05
(PID.TID 0000.0001) %MON dynstat_wvel_max             =   1.4546217912502E-04
(PID.TID 0000.0001) %MON dynstat_wvel_min             =  -7.6404229202539E-05
(PID.TID 0000.0001) %MON dynstat_wvel_mean            =   2.9571141115725E-22
(PID.TID 0000.0001) %MON dynstat_wvel_sd              =   1.0780508479771E-05
(PID.TID 0000.0001) %MON dynstat_wvel_del2            =   1.0644715382389E-07
(PID.TID 0000.0001) %MON dynstat_theta_max            =   3.0881274268249E+01
(PID.TID 0000.0001) %MON dynstat_theta_min            =  -1.9504576031074E+00
(PID.TID 0000.0001) %MON dynstat_theta_mean           =   3.6338650569830E+00
(PID.TID 0000.0001) %MON dynstat_theta_sd             =   4.4264120152399E+00
(PID.TID 0000.0001) %MON dynstat_theta_del2           =   4.8623860777980E-03
(PID.TID 0000.0001) %MON dynstat_salt_max             =   3.7475443883648E+01
(PID.TID 0000.0001) %MON dynstat_salt_min             =   2.9908253528208E+01
(PID.TID 0000.0001) %MON dynstat_salt_mean            =   3.4728010500054E+01
(PID.TID 0000.0001) %MON dynstat_salt_sd              =   2.9655807828189E-01
(PID.TID 0000.0001) %MON dynstat_salt_del2            =   9.9014845927854E-04
(PID.TID 0000.0001) %MON dynstat_sst_max              =   3.0881274268249E+01
(PID.TID 0000.0001) %MON dynstat_sst_min              =  -1.9504576031074E+00
(PID.TID 0000.0001) %MON dynstat_sst_mean             =   1.9058623136922E+01
(PID.TID 0000.0001) %MON dynstat_sst_sd               =   9.1349551448430E+00
(PID.TID 0000.0001) %MON dynstat_sst_del2             =   2.8542981305833E-02
(PID.TID 0000.0001) %MON dynstat_sss_max              =   3.7466191058472E+01
(PID.TID 0000.0001) %MON dynstat_sss_min              =   2.9908253528208E+01
(PID.TID 0000.0001) %MON dynstat_sss_mean             =   3.4847901445139E+01
(PID.TID 0000.0001) %MON dynstat_sss_sd               =   9.8488084418423E-01
(PID.TID 0000.0001) %MON dynstat_sss_del2             =   8.1226537830068E-03
(PID.TID 0000.0001) %MON forcing_qnet_max             =   2.8010399373372E+02
(PID.TID 0000.0001) %MON forcing_qnet_min             =  -1.6445414937337E+02
(PID.TID 0000.0001) %MON forcing_qnet_mean            =  -7.7117449893978E+00
(PID.TID 0000.0001) %MON forcing_qnet_sd              =   4.7682028835488E+01
(PID.TID 0000.0001) %MON forcing_qnet_del2            =   8.5372818761303E-01
(PID.TID 0000.0001) %MON forcing_qsw_max              =   0.0000000000000E+00
(PID.TID 0000.0001) %MON forcing_qsw_min              =   0.0000000000000E+00
(PID.TID 0000.0001) %MON forcing_qsw_mean             =   0.0000000000000E+00
(PID.TID 0000.0001) %MON forcing_qsw_sd               =   0.0000000000000E+00
(PID.TID 0000.0001) %MON forcing_qsw_del2             =   0.0000000000000E+00
(PID.TID 0000.0001) %MON forcing_empmr_max            =   6.9120334463454E-05
(PID.TID 0000.0001) %MON forcing_empmr_min            =  -8.2466058396828E-05
(PID.TID 0000.0001) %MON forcing_empmr_mean           =   5.7689091542740E-07
(PID.TID 0000.0001) %MON forcing_empmr_sd             =   2.6334295639993E-05
(PID.TID 0000.0001) %MON forcing_empmr_del2           =   3.6406482698784E-07
(PID.TID 0000.0001) %MON forcing_fu_max               =   3.5366856455803E-01
(PID.TID 0000.0001) %MON forcing_fu_min               =  -3.7581218282382E-01
(PID.TID 0000.0001) %MON forcing_fu_mean              =   2.0268330121471E-02
(PID.TID 0000.0001) %MON forcing_fu_sd                =   1.0099442893771E-01
(PID.TID 0000.0001) %MON forcing_fu_del2              =   8.2292198802484E-04
(PID.TID 0000.0001) %MON forcing_fv_max               =   1.7565003186464E-01
(PID.TID 0000.0001) %MON forcing_fv_min               =  -1.9033604760965E-01
(PID.TID 0000.0001) %MON forcing_fv_mean              =  -7.5087187401056E-03
(PID.TID 0000.0001) %MON forcing_fv_sd                =   4.2349967885931E-02
(PID.TID 0000.0001) %MON forcing_fv_del2              =   4.9608724441070E-04
(PID.TID 0000.0001) %MON trAdv_CFL_u_max              =   4.8419956740649E-02
(PID.TID 0000.0001) %MON trAdv_CFL_v_max              =   2.8941616812287E-02
(PID.TID 0000.0001) %MON trAdv_CFL_w_max              =   3.3460667289407E-02
(PID.TID 0000.0001) %MON advcfl_uvel_max              =   4.7642402820199E-02
(PID.TID 0000.0001) %MON advcfl_vvel_max              =   2.8830043822016E-02
(PID.TID 0000.0001) %MON advcfl_wvel_max              =   3.4432691168224E-02
(PID.TID 0000.0001) %MON advcfl_W_hf_max              =   3.7014366738625E-02
(PID.TID 0000.0001) %MON pe_b_mean                    =   6.1038030561791E-04
(PID.TID 0000.0001) %MON ke_max                       =   1.3611089584375E-02
(PID.TID 0000.0001) %MON ke_mean                      =   1.2969082693037E-04
(PID.TID 0000.0001) %MON ke_vol                       =   1.3226782436723E+18
(PID.TID 0000.0001) %MON vort_r_min                   =  -3.2053655088101E-07
(PID.TID 0000.0001) %MON vort_r_max                   =   4.0176255834776E-07
(PID.TID 0000.0001) %MON vort_a_mean                  =  -2.5274806752356E-05
(PID.TID 0000.0001) %MON vort_a_sd                    =   7.3604678850246E-05
(PID.TID 0000.0001) %MON vort_p_mean                  =  -3.1845654986667E-05
(PID.TID 0000.0001) %MON vort_p_sd                    =   1.3162510369514E-04
(PID.TID 0000.0001) %MON surfExpan_theta_mean         =   2.9372160551416E-07
(PID.TID 0000.0001) %MON surfExpan_salt_mean          =  -3.7257510929215E-08
(PID.TID 0000.0001) // =======================================================
(PID.TID 0000.0001) // End MONITOR dynamic field statistics
(PID.TID 0000.0001) // =======================================================
 EXTERNAL_FIELDS_LOAD,        74 : iP,iLd,i0,i1=    2    3    2    3 ; Wght=  0.0333333333  0.9666666667
 EXTERNAL_FIELDS_LOAD: (fu0,1),fu,fv= -1.4435E-02 -2.7199E-02 -2.6773E-02 -1.1467E-03
 EXTERNAL_FIELDS_LOAD: SST,SSS,Q,E-P= -1.9550E-01  3.4574E+01  2.1623E+02  9.0573E-06
DEBUG_STATS_RL:          Uvel (THERMODYNAMICS)  min= -1.18704401482978E-01
DEBUG_STATS_RL:          Uvel (THERMODYNAMICS)  max=  1.44136970872771E-01
DEBUG_STATS_RL:          Uvel (THERMODYNAMICS) mean=  6.22465760822849E-03
DEBUG_STATS_RL:          Uvel (THERMODYNAMICS) S.D.=  2.26685262629452E-02
DEBUG_STATS_RL:          Vvel (THERMODYNAMICS)  min= -7.99547441143601E-02
DEBUG_STATS_RL:          Vvel (THERMODYNAMICS)  max=  1.48391269850015E-01
DEBUG_STATS_RL:          Vvel (THERMODYNAMICS) mean=  7.09625912333163E-04
DEBUG_STATS_RL:          Vvel (THERMODYNAMICS) S.D.=  1.35258616514941E-02
DEBUG_STATS_RL:          Wvel (THERMODYNAMICS)  min= -7.64042292025394E-05
DEBUG_STATS_RL:          Wvel (THERMODYNAMICS)  max=  1.45462179125022E-04
DEBUG_STATS_RL:          Wvel (THERMODYNAMICS) mean= -4.74206002778172E-08
DEBUG_STATS_RL:          Wvel (THERMODYNAMICS) S.D.=  9.52605283511828E-06
DEBUG_STATS_RL:         Theta (THERMODYNAMICS)  min= -1.94983752459763E+00
DEBUG_STATS_RL:         Theta (THERMODYNAMICS)  max=  3.09053292386073E+01
DEBUG_STATS_RL:         Theta (THERMODYNAMICS) mean=  3.23124928130881E+00
DEBUG_STATS_RL:         Theta (THERMODYNAMICS) S.D.=  5.88432796681756E+00
DEBUG_STATS_RL:          Salt (THERMODYNAMICS)  min=  9.99999999999997E-03
DEBUG_STATS_RL:          Salt (THERMODYNAMICS)  max=  3.74750525040193E+01
DEBUG_STATS_RL:          Salt (THERMODYNAMICS) mean=  1.88547467366864E+01
DEBUG_STATS_RL:          Salt (THERMODYNAMICS) S.D.=  1.73002932177973E+01
DEBUG_STATS_RL:         GtNm1 (THERMODYNAMICS)  min= -4.63734087392863E-06
DEBUG_STATS_RL:         GtNm1 (THERMODYNAMICS)  max=  2.42385795109497E-06
DEBUG_STATS_RL:         GtNm1 (THERMODYNAMICS) mean=  2.07911941975443E-09
DEBUG_STATS_RL:         GtNm1 (THERMODYNAMICS) S.D.=  1.50931064417232E-07
DEBUG_STATS_RL:         GsNm1 (THERMODYNAMICS)  min= -4.53765916434265E-07
DEBUG_STATS_RL:         GsNm1 (THERMODYNAMICS)  max=  3.00923869820116E-07
DEBUG_STATS_RL:         GsNm1 (THERMODYNAMICS) mean=  2.36738270820127E-11
DEBUG_STATS_RL:         GsNm1 (THERMODYNAMICS) S.D.=  1.37075076624681E-08
DEBUG_STATS_RL:                EtaN (DYNAMICS)  min= -1.95959847528631E+00
DEBUG_STATS_RL:                EtaN (DYNAMICS)  max=  1.03176651704836E+00
DEBUG_STATS_RL:                EtaN (DYNAMICS) mean= -1.96799146255964E-01
DEBUG_STATS_RL:                EtaN (DYNAMICS) S.D.=  7.84726424421002E-01
DEBUG_STATS_RL:                Uvel (DYNAMICS)  min= -1.18704401482978E-01
DEBUG_STATS_RL:                Uvel (DYNAMICS)  max=  1.44136970872771E-01
DEBUG_STATS_RL:                Uvel (DYNAMICS) mean=  6.22465760822849E-03
DEBUG_STATS_RL:                Uvel (DYNAMICS) S.D.=  2.26685262629452E-02
DEBUG_STATS_RL:                Vvel (DYNAMICS)  min= -7.99547441143601E-02
DEBUG_STATS_RL:                Vvel (DYNAMICS)  max=  1.48391269850015E-01
DEBUG_STATS_RL:                Vvel (DYNAMICS) mean=  7.09625912333163E-04
DEBUG_STATS_RL:                Vvel (DYNAMICS) S.D.=  1.35258616514941E-02
DEBUG_STATS_RL:                Wvel (DYNAMICS)  min= -7.64042292025394E-05
DEBUG_STATS_RL:                Wvel (DYNAMICS)  max=  1.45462179125022E-04
DEBUG_STATS_RL:                Wvel (DYNAMICS) mean= -4.74206002778172E-08
DEBUG_STATS_RL:                Wvel (DYNAMICS) S.D.=  9.52605283511828E-06
DEBUG_STATS_RL:               Theta (DYNAMICS)  min= -1.94983752459763E+00
DEBUG_STATS_RL:               Theta (DYNAMICS)  max=  3.09053292386073E+01
DEBUG_STATS_RL:               Theta (DYNAMICS) mean=  3.23124928130881E+00
DEBUG_STATS_RL:               Theta (DYNAMICS) S.D.=  5.88432796681756E+00
DEBUG_STATS_RL:                Salt (DYNAMICS)  min=  9.99999999999997E-03
DEBUG_STATS_RL:                Salt (DYNAMICS)  max=  3.74750525040193E+01
DEBUG_STATS_RL:                Salt (DYNAMICS) mean=  1.88547467366864E+01
DEBUG_STATS_RL:                Salt (DYNAMICS) S.D.=  1.73002932177973E+01
DEBUG_STATS_RL:                  Gu (DYNAMICS)  min= -1.18088089173718E-01
DEBUG_STATS_RL:                  Gu (DYNAMICS)  max=  1.45058645423084E-01
DEBUG_STATS_RL:                  Gu (DYNAMICS) mean=  6.19353165876073E-03
DEBUG_STATS_RL:                  Gu (DYNAMICS) S.D.=  2.31105337318212E-02
DEBUG_STATS_RL:                  Gv (DYNAMICS)  min= -8.38459412235678E-02
DEBUG_STATS_RL:                  Gv (DYNAMICS)  max=  1.48529159052377E-01
DEBUG_STATS_RL:                  Gv (DYNAMICS) mean=  3.45944493947604E-03
DEBUG_STATS_RL:                  Gv (DYNAMICS) S.D.=  1.48962544636668E-02
DEBUG_STATS_RL:               GuNm1 (DYNAMICS)  min= -1.03549219599699E-05
DEBUG_STATS_RL:               GuNm1 (DYNAMICS)  max=  9.31420934671612E-06
DEBUG_STATS_RL:               GuNm1 (DYNAMICS) mean=  7.94291093965778E-09
DEBUG_STATS_RL:               GuNm1 (DYNAMICS) S.D.=  1.21743776662330E-06
DEBUG_STATS_RL:               GvNm1 (DYNAMICS)  min= -9.98180498767914E-06
DEBUG_STATS_RL:               GvNm1 (DYNAMICS)  max=  1.56025590566496E-05
DEBUG_STATS_RL:               GvNm1 (DYNAMICS) mean=  7.37622684295835E-07
DEBUG_STATS_RL:               GvNm1 (DYNAMICS) S.D.=  2.62520123428098E-06
DEBUG_STATS_RL:               GtNm1 (DYNAMICS)  min= -4.63734087392863E-06
DEBUG_STATS_RL:               GtNm1 (DYNAMICS)  max=  2.42385795109497E-06
DEBUG_STATS_RL:               GtNm1 (DYNAMICS) mean=  2.07911941975443E-09
DEBUG_STATS_RL:               GtNm1 (DYNAMICS) S.D.=  1.50931064417232E-07
DEBUG_STATS_RL:               GsNm1 (DYNAMICS)  min= -4.53765916434265E-07
DEBUG_STATS_RL:               GsNm1 (DYNAMICS)  max=  3.00923869820116E-07
DEBUG_STATS_RL:               GsNm1 (DYNAMICS) mean=  2.36738270820127E-11
DEBUG_STATS_RL:               GsNm1 (DYNAMICS) S.D.=  1.37075076624681E-08
DEBUG_STATS_RL:    cg2d_b (SOLVE_FOR_PRESSURE)  min= -2.18937159182333E+04
DEBUG_STATS_RL:    cg2d_b (SOLVE_FOR_PRESSURE)  max=  2.44898208403698E+04
DEBUG_STATS_RL:    cg2d_b (SOLVE_FOR_PRESSURE) mean=  5.06167915594345E+00
DEBUG_STATS_RL:    cg2d_b (SOLVE_FOR_PRESSURE) S.D.=  3.93924301919967E+03
 cg2d: Sum(rhs),rhsMax =   4.78475825625171E-01  1.60855700247148E+00
(PID.TID 0000.0001)  cg2d: iter=     1 ; resid.=  9.35981453041815E-02
(PID.TID 0000.0001)  cg2d: iter=     2 ; resid.=  6.08684350983465E-02
(PID.TID 0000.0001)  cg2d: iter=     3 ; resid.=  5.01191023955762E-02
(PID.TID 0000.0001)  cg2d: iter=     4 ; resid.=  4.70911899349872E-02
(PID.TID 0000.0001)  cg2d: iter=     5 ; resid.=  4.03935747124602E-02
(PID.TID 0000.0001)  cg2d: iter=     6 ; resid.=  3.46332833538417E-02
(PID.TID 0000.0001)  cg2d: iter=     7 ; resid.=  3.05121624733619E-02
(PID.TID 0000.0001)  cg2d: iter=     8 ; resid.=  2.47974974953714E-02
(PID.TID 0000.0001)  cg2d: iter=     9 ; resid.=  2.15718816820216E-02
(PID.TID 0000.0001)  cg2d: iter=    10 ; resid.=  1.74603221841184E-02
(PID.TID 0000.0001)  cg2d: iter=    11 ; resid.=  1.47207971290640E-02
(PID.TID 0000.0001)  cg2d: iter=    12 ; resid.=  1.25122068944598E-02
(PID.TID 0000.0001)  cg2d: iter=    13 ; resid.=  9.36589817899783E-03
(PID.TID 0000.0001)  cg2d: iter=    14 ; resid.=  7.56543134004565E-03
(PID.TID 0000.0001)  cg2d: iter=    15 ; resid.=  6.10673365794245E-03
(PID.TID 0000.0001)  cg2d: iter=    16 ; resid.=  5.07173426394084E-03
(PID.TID 0000.0001)  cg2d: iter=    17 ; resid.=  4.43964998861901E-03
(PID.TID 0000.0001)  cg2d: iter=    18 ; resid.=  4.11164316037899E-03
(PID.TID 0000.0001)  cg2d: iter=    19 ; resid.=  3.40446509687601E-03
(PID.TID 0000.0001)  cg2d: iter=    20 ; resid.=  2.61231146132083E-03
(PID.TID 0000.0001)  cg2d: iter=    21 ; resid.=  2.14130111084916E-03
(PID.TID 0000.0001)  cg2d: iter=    22 ; resid.=  1.89188485238150E-03
(PID.TID 0000.0001)  cg2d: iter=    23 ; resid.=  1.68303062307743E-03
(PID.TID 0000.0001)  cg2d: iter=    24 ; resid.=  1.34140922140627E-03
(PID.TID 0000.0001)  cg2d: iter=    25 ; resid.=  1.07940317857267E-03
(PID.TID 0000.0001)  cg2d: iter=    26 ; resid.=  8.92301163792870E-04
(PID.TID 0000.0001)  cg2d: iter=    27 ; resid.=  7.18491180758652E-04
(PID.TID 0000.0001)  cg2d: iter=    28 ; resid.=  6.16571400775261E-04
(PID.TID 0000.0001)  cg2d: iter=    29 ; resid.=  5.34951571436777E-04
(PID.TID 0000.0001)  cg2d: iter=    30 ; resid.=  4.60698811047054E-04
(PID.TID 0000.0001)  cg2d: iter=    31 ; resid.=  3.88410199911284E-04
(PID.TID 0000.0001)  cg2d: iter=    32 ; resid.=  2.93606234158016E-04
(PID.TID 0000.0001)  cg2d: iter=    33 ; resid.=  2.38255646360155E-04
(PID.TID 0000.0001)  cg2d: iter=    34 ; resid.=  1.98233268308151E-04
(PID.TID 0000.0001)  cg2d: iter=    35 ; resid.=  1.69795758635561E-04
(PID.TID 0000.0001)  cg2d: iter=    36 ; resid.=  1.47168961423837E-04
(PID.TID 0000.0001)  cg2d: iter=    37 ; resid.=  1.22613430553988E-04
(PID.TID 0000.0001)  cg2d: iter=    38 ; resid.=  1.03932096737950E-04
(PID.TID 0000.0001)  cg2d: iter=    39 ; resid.=  8.93862216131162E-05
(PID.TID 0000.0001)  cg2d: iter=    40 ; resid.=  7.80795339223559E-05
(PID.TID 0000.0001)  cg2d: iter=    41 ; resid.=  6.72353680428382E-05
(PID.TID 0000.0001)  cg2d: iter=    42 ; resid.=  6.09331495461932E-05
(PID.TID 0000.0001)  cg2d: iter=    43 ; resid.=  5.17644395782671E-05
(PID.TID 0000.0001)  cg2d: iter=    44 ; resid.=  4.12407098500937E-05
(PID.TID 0000.0001)  cg2d: iter=    45 ; resid.=  3.32957704830243E-05
(PID.TID 0000.0001)  cg2d: iter=    46 ; resid.=  2.62015927785092E-05
(PID.TID 0000.0001)  cg2d: iter=    47 ; resid.=  2.12638049422298E-05
(PID.TID 0000.0001)  cg2d: iter=    48 ; resid.=  1.80213293921916E-05
(PID.TID 0000.0001)  cg2d: iter=    49 ; resid.=  1.50561415250922E-05
(PID.TID 0000.0001)  cg2d: iter=    50 ; resid.=  1.24708946528600E-05
(PID.TID 0000.0001)  cg2d: iter=    51 ; resid.=  1.06385580747868E-05
(PID.TID 0000.0001)  cg2d: iter=    52 ; resid.=  9.12610522392841E-06
(PID.TID 0000.0001)  cg2d: iter=    53 ; resid.=  7.75973427715990E-06
(PID.TID 0000.0001)  cg2d: iter=    54 ; resid.=  6.28162597934413E-06
(PID.TID 0000.0001)  cg2d: iter=    55 ; resid.=  5.30216814419408E-06
(PID.TID 0000.0001)  cg2d: iter=    56 ; resid.=  4.31005055665663E-06
(PID.TID 0000.0001)  cg2d: iter=    57 ; resid.=  3.81591059420479E-06
(PID.TID 0000.0001)  cg2d: iter=    58 ; resid.=  2.94590181649864E-06
(PID.TID 0000.0001)  cg2d: iter=    59 ; resid.=  2.31657740615221E-06
(PID.TID 0000.0001)  cg2d: iter=    60 ; resid.=  1.86169834865445E-06
(PID.TID 0000.0001)  cg2d: iter=    61 ; resid.=  1.56390563000264E-06
(PID.TID 0000.0001)  cg2d: iter=    62 ; resid.=  1.33679291911997E-06
(PID.TID 0000.0001)  cg2d: iter=    63 ; resid.=  1.18856132330618E-06
(PID.TID 0000.0001)  cg2d: iter=    64 ; resid.=  9.84184145185838E-07
(PID.TID 0000.0001)  cg2d: iter=    65 ; resid.=  7.71235769680616E-07
(PID.TID 0000.0001)  cg2d: iter=    66 ; resid.=  6.23579213257228E-07
(PID.TID 0000.0001)  cg2d: iter=    67 ; resid.=  5.04795856376286E-07
(PID.TID 0000.0001)  cg2d: iter=    68 ; resid.=  4.08342864826407E-07
(PID.TID 0000.0001)  cg2d: iter=    69 ; resid.=  3.27896046284761E-07
(PID.TID 0000.0001)  cg2d: iter=    70 ; resid.=  2.57586378469913E-07
(PID.TID 0000.0001)  cg2d: iter=    71 ; resid.=  2.05784171218235E-07
(PID.TID 0000.0001)  cg2d: iter=    72 ; resid.=  1.74499293646004E-07
(PID.TID 0000.0001)  cg2d: iter=    73 ; resid.=  1.61205106317819E-07
(PID.TID 0000.0001)  cg2d: iter=    74 ; resid.=  1.50044897869066E-07
(PID.TID 0000.0001)  cg2d: iter=    75 ; resid.=  1.22993815930680E-07
(PID.TID 0000.0001)  cg2d: iter=    76 ; resid.=  1.01795478205407E-07
(PID.TID 0000.0001)  cg2d: iter=    77 ; resid.=  8.58574453047505E-08
(PID.TID 0000.0001)  cg2d: iter=    78 ; resid.=  7.01044209811809E-08
(PID.TID 0000.0001)  cg2d: iter=    79 ; resid.=  6.20147757542630E-08
(PID.TID 0000.0001)  cg2d: iter=    80 ; resid.=  5.11739903039789E-08
(PID.TID 0000.0001)  cg2d: iter=    81 ; resid.=  4.02991176251053E-08
(PID.TID 0000.0001)  cg2d: iter=    82 ; resid.=  2.86946959553479E-08
(PID.TID 0000.0001)  cg2d: iter=    83 ; resid.=  2.15568447111041E-08
(PID.TID 0000.0001)  cg2d: iter=    84 ; resid.=  1.64817894303935E-08
(PID.TID 0000.0001)  cg2d: iter=    85 ; resid.=  1.20545133770280E-08
(PID.TID 0000.0001)  cg2d: iter=    86 ; resid.=  9.19975862284501E-09
(PID.TID 0000.0001)  cg2d: iter=    87 ; resid.=  7.59682779902419E-09
(PID.TID 0000.0001)  cg2d: iter=    88 ; resid.=  5.92851072493245E-09
(PID.TID 0000.0001)  cg2d: iter=    89 ; resid.=  5.01502442806935E-09
(PID.TID 0000.0001)  cg2d: iter=    90 ; resid.=  4.40372618827611E-09
(PID.TID 0000.0001)  cg2d: iter=    91 ; resid.=  3.27693901504096E-09
(PID.TID 0000.0001)  cg2d: iter=    92 ; resid.=  2.28155687051229E-09
(PID.TID 0000.0001)  cg2d: iter=    93 ; resid.=  1.65605312874071E-09
(PID.TID 0000.0001)  cg2d: iter=    94 ; resid.=  1.25889777016142E-09
(PID.TID 0000.0001)  cg2d: iter=    95 ; resid.=  9.70002833327990E-10
(PID.TID 0000.0001)  cg2d: iter=    96 ; resid.=  7.39345614018024E-10
(PID.TID 0000.0001)  cg2d: iter=    97 ; resid.=  5.65038473031966E-10
(PID.TID 0000.0001)  cg2d: iter=    98 ; resid.=  4.18660384021516E-10
(PID.TID 0000.0001)  cg2d: iter=    99 ; resid.=  3.07614977630854E-10
(PID.TID 0000.0001)  cg2d: iter=   100 ; resid.=  2.80551187937429E-10
(PID.TID 0000.0001)  cg2d: iter=   101 ; resid.=  2.34089568757541E-10
(PID.TID 0000.0001)  cg2d: iter=   102 ; resid.=  1.94603347619321E-10
(PID.TID 0000.0001)  cg2d: iter=   103 ; resid.=  1.65848734273919E-10
(PID.TID 0000.0001)  cg2d: iter=   104 ; resid.=  1.31533157099107E-10
(PID.TID 0000.0001)  cg2d: iter=   105 ; resid.=  1.07472652194515E-10
(PID.TID 0000.0001)  cg2d: iter=   106 ; resid.=  9.08057874173553E-11
(PID.TID 0000.0001)  cg2d: iter=   107 ; resid.=  7.06637594782216E-11
(PID.TID 0000.0001)  cg2d: iter=   108 ; resid.=  6.08806077320402E-11
(PID.TID 0000.0001)  cg2d: iter=   109 ; resid.=  4.89597045648099E-11
(PID.TID 0000.0001)  cg2d: iter=   110 ; resid.=  3.54333090871166E-11
(PID.TID 0000.0001)  cg2d: iter=   111 ; resid.=  2.85578091639165E-11
(PID.TID 0000.0001)  cg2d: iter=   112 ; resid.=  2.22578155723135E-11
(PID.TID 0000.0001)  cg2d: iter=   113 ; resid.=  1.86360514158828E-11
(PID.TID 0000.0001)  cg2d: iter=   114 ; resid.=  1.52068948949262E-11
(PID.TID 0000.0001)  cg2d: iter=   115 ; resid.=  1.24631409849552E-11
(PID.TID 0000.0001)  cg2d: iter=   116 ; resid.=  9.03865258700069E-12
(PID.TID 0000.0001)  cg2d: iter=   117 ; resid.=  6.78592733282938E-12
(PID.TID 0000.0001)  cg2d: iter=   118 ; resid.=  5.05038269141274E-12
(PID.TID 0000.0001)  cg2d: iter=   119 ; resid.=  3.82963872095453E-12
(PID.TID 0000.0001)  cg2d: iter=   120 ; resid.=  2.68833653813938E-12
(PID.TID 0000.0001)  cg2d: iter=   121 ; resid.=  2.07450654343832E-12
(PID.TID 0000.0001)  cg2d: iter=   122 ; resid.=  1.63264673764569E-12
(PID.TID 0000.0001)  cg2d: iter=   123 ; resid.=  1.19131413161817E-12
(PID.TID 0000.0001)  cg2d: iter=   124 ; resid.=  8.85570048731843E-13
(PID.TID 0000.0001)  cg2d: iter=   125 ; resid.=  6.46579783807794E-13
(PID.TID 0000.0001)  cg2d: iter=   126 ; resid.=  4.70819440284107E-13
(PID.TID 0000.0001)  cg2d: iter=   127 ; resid.=  3.51456950294421E-13
(PID.TID 0000.0001)  cg2d: iter=   128 ; resid.=  2.53628070955146E-13
(PID.TID 0000.0001)  cg2d: iter=   129 ; resid.=  1.82425034154221E-13
(PID.TID 0000.0001)  cg2d: iter=   130 ; resid.=  1.36342315105372E-13
(PID.TID 0000.0001)  cg2d: iter=   131 ; resid.=  1.02105323518433E-13
(PID.TID 0000.0001)  cg2d: iter=   132 ; resid.=  7.08373786374098E-14
DEBUG_STATS_RL:    cg2d_x (SOLVE_FOR_PRESSURE)  min= -1.93221546527727E+01
DEBUG_STATS_RL:    cg2d_x (SOLVE_FOR_PRESSURE)  max=  1.02149008067186E+01
DEBUG_STATS_RL:    cg2d_x (SOLVE_FOR_PRESSURE) mean= -1.94073821311916E+00
DEBUG_STATS_RL:    cg2d_x (SOLVE_FOR_PRESSURE) S.D.=  7.73292496413808E+00
(PID.TID 0000.0001)      cg2d_init_res =   2.61932675669941E-01
(PID.TID 0000.0001)      cg2d_iters(min,last) =      -1     132
(PID.TID 0000.0001)      cg2d_last_res =   7.08373786374098E-14
(PID.TID 0000.0001) // =======================================================
(PID.TID 0000.0001) // Begin MONITOR dynamic field statistics
(PID.TID 0000.0001) // =======================================================
(PID.TID 0000.0001) %MON time_tsnumber                =                    75
(PID.TID 0000.0001) %MON time_secondsf                =   6.4800000000000E+06
(PID.TID 0000.0001) %MON dynstat_eta_max              =   1.0412742922242E+00
(PID.TID 0000.0001) %MON dynstat_eta_min              =  -1.9696385986517E+00
(PID.TID 0000.0001) %MON dynstat_eta_mean             =  -5.2812345717321E-03
(PID.TID 0000.0001) %MON dynstat_eta_sd               =   6.9423226920780E-01
(PID.TID 0000.0001) %MON dynstat_eta_del2             =   2.4396658554489E-03
(PID.TID 0000.0001) %MON dynstat_uvel_max             =   1.4107872390198E-01
(PID.TID 0000.0001) %MON dynstat_uvel_min             =  -1.2026138382901E-01
(PID.TID 0000.0001) %MON dynstat_uvel_mean            =   2.4537143348810E-03
(PID.TID 0000.0001) %MON dynstat_uvel_sd              =   1.4531205042902E-02
(PID.TID 0000.0001) %MON dynstat_uvel_del2            =   8.9568196880547E-05
(PID.TID 0000.0001) %MON dynstat_vvel_max             =   1.4683461217533E-01
(PID.TID 0000.0001) %MON dynstat_vvel_min             =  -7.7440567390406E-02
(PID.TID 0000.0001) %MON dynstat_vvel_mean            =  -5.8800565579552E-05
(PID.TID 0000.0001) %MON dynstat_vvel_sd              =   8.3623052970855E-03
(PID.TID 0000.0001) %MON dynstat_vvel_del2            =   7.4336115335634E-05
(PID.TID 0000.0001) %MON dynstat_wvel_max             =   1.5726458246289E-04
(PID.TID 0000.0001) %MON dynstat_wvel_min             =  -7.3798627134050E-05
(PID.TID 0000.0001) %MON dynstat_wvel_mean            =   2.5652081129582E-22
(PID.TID 0000.0001) %MON dynstat_wvel_sd              =   1.0784593717706E-05
(PID.TID 0000.0001) %MON dynstat_wvel_del2            =   1.0659296803455E-07
(PID.TID 0000.0001) %MON dynstat_theta_max            =   3.0905329238607E+01
(PID.TID 0000.0001) %MON dynstat_theta_min            =  -1.9498375245976E+00
(PID.TID 0000.0001) %MON dynstat_theta_mean           =   3.6339008425076E+00
(PID.TID 0000.0001) %MON dynstat_theta_sd             =   4.4266047951649E+00
(PID.TID 0000.0001) %MON dynstat_theta_del2           =   4.8591945560946E-03
(PID.TID 0000.0001) %MON dynstat_salt_max             =   3.7475052504019E+01
(PID.TID 0000.0001) %MON dynstat_salt_min             =   2.9909991046516E+01
(PID.TID 0000.0001) %MON dynstat_salt_mean            =   3.4728011873334E+01
(PID.TID 0000.0001) %MON dynstat_salt_sd              =   2.9656725029264E-01
(PID.TID 0000.0001) %MON dynstat_salt_del2            =   9.9056452146750E-04
(PID.TID 0000.0001) %MON dynstat_sst_max              =   3.0905329238607E+01
(PID.TID 0000.0001) %MON dynstat_sst_min              =  -1.9498375245976E+00
(PID.TID 0000.0001) %MON dynstat_sst_mean             =   1.9061218349784E+01
(PID.TID 0000.0001) %MON dynstat_sst_sd               =   9.1418479810488E+00
(PID.TID 0000.0001) %MON dynstat_sst_del2             =   2.8590640866558E-02
(PID.TID 0000.0001) %MON dynstat_sss_max              =   3.7466817872605E+01
(PID.TID 0000.0001) %MON dynstat_sss_min              =   2.9909991046516E+01
(PID.TID 0000.0001) %MON dynstat_sss_mean             =   3.4847895780788E+01
(PID.TID 0000.0001) %MON dynstat_sss_sd               =   9.8518614972309E-01
(PID.TID 0000.0001) %MON dynstat_sss_del2             =   8.1334841266831E-03
(PID.TID 0000.0001) %MON forcing_qnet_max             =   2.7730584208171E+02
(PID.TID 0000.0001) %MON forcing_qnet_min             =  -1.6415487009684E+02
(PID.TID 0000.0001) %MON forcing_qnet_mean            =  -7.4884054897712E+00
(PID.TID 0000.0001) %MON forcing_qnet_sd              =   4.7058066194511E+01
(PID.TID 0000.0001) %MON forcing_qnet_del2            =   8.5296023684548E-01
(PID.TID 0000.0001) %MON forcing_qsw_max              =   0.0000000000000E+00
(PID.TID 0000.0001) %MON forcing_qsw_min              =   0.0000000000000E+00
(PID.TID 0000.0001) %MON forcing_qsw_mean             =   0.0000000000000E+00
(PID.TID 0000.0001) %MON forcing_qsw_sd               =   0.0000000000000E+00
(PID.TID 0000.0001) %MON forcing_qsw_del2             =   0.0000000000000E+00
(PID.TID 0000.0001) %MON forcing_empmr_max            =   6.9114578119904E-05
(PID.TID 0000.0001) %MON forcing_empmr_min            =  -8.2865237989912E-05
(PID.TID 0000.0001) %MON forcing_empmr_mean           =   5.6380098455305E-07
(PID.TID 0000.0001) %MON forcing_empmr_sd             =   2.6310215550859E-05
(PID.TID 0000.0001) %MON forcing_empmr_del2           =   3.6525018640228E-07
(PID.TID 0000.0001) %MON forcing_fu_max               =   3.5560998022556E-01
(PID.TID 0000.0001) %MON forcing_fu_min               =  -3.8218430181344E-01
(PID.TID 0000.0001) %MON forcing_fu_mean              =   2.0362529710929E-02
(PID.TID 0000.0001) %MON forcing_fu_sd                =   1.0155623203239E-01
(PID.TID 0000.0001) %MON forcing_fu_del2              =   8.3547097553751E-04
(PID.TID 0000.0001) %MON forcing_fv_max               =   1.7947518900037E-01
(PID.TID 0000.0001) %MON forcing_fv_min               =  -1.9183383832375E-01
(PID.TID 0000.0001) %MON forcing_fv_mean              =  -7.5191470900751E-03
(PID.TID 0000.0001) %MON forcing_fv_sd                =   4.2508768930942E-02
(PID.TID 0000.0001) %MON forcing_fv_del2              =   5.0164590245370E-04
(PID.TID 0000.0001) %MON trAdv_CFL_u_max              =   4.7652079332956E-02
(PID.TID 0000.0001) %MON trAdv_CFL_v_max              =   2.8712560831759E-02
(PID.TID 0000.0001) %MON trAdv_CFL_w_max              =   3.3995970117534E-02
(PID.TID 0000.0001) %MON advcfl_uvel_max              =   4.6631543266097E-02
(PID.TID 0000.0001) %MON advcfl_vvel_max              =   2.8527610201613E-02
(PID.TID 0000.0001) %MON advcfl_wvel_max              =   3.7226465547381E-02
(PID.TID 0000.0001) %MON advcfl_W_hf_max              =   3.9963705661159E-02
(PID.TID 0000.0001) %MON pe_b_mean                    =   6.1675961087129E-04
(PID.TID 0000.0001) %MON ke_max                       =   1.3572448990975E-02
(PID.TID 0000.0001) %MON ke_mean                      =   1.3006199549262E-04
(PID.TID 0000.0001) %MON ke_vol                       =   1.3226782436723E+18
(PID.TID 0000.0001) %MON vort_r_min                   =  -3.3117055979374E-07
(PID.TID 0000.0001) %MON vort_r_max                   =   4.0083476774373E-07
(PID.TID 0000.0001) %MON vort_a_mean                  =  -2.5274806755913E-05
(PID.TID 0000.0001) %MON vort_a_sd                    =   7.3604679883148E-05
(PID.TID 0000.0001) %MON vort_p_mean                  =  -3.1845654991150E-05
(PID.TID 0000.0001) %MON vort_p_sd                    =   1.3162513856381E-04
(PID.TID 0000.0001) %MON surfExpan_theta_mean         =   2.4787466924514E-07
(PID.TID 0000.0001) %MON surfExpan_salt_mean          =  -2.4161584885818E-08
(PID.TID 0000.0001) // =======================================================
(PID.TID 0000.0001) // End MONITOR dynamic field statistics
(PID.TID 0000.0001) // =======================================================
 EXTERNAL_FIELDS_LOAD,        75 : iP,iLd,i0,i1=    2    3    3    4 ; Wght=  1.0000000000  0.0000000000
 EXTERNAL_FIELDS_LOAD, it=        75 : Reading new data, i0,i1=    3    4 (prev=    2    3 )
(PID.TID 0000.0001)  MDS_READ_FIELD: opening global file: trenberth_taux.bin
(PID.TID 0000.0001)  MDS_READ_FIELD: opening global file: trenberth_taux.bin
(PID.TID 0000.0001)  MDS_READ_FIELD: opening global file: trenberth_tauy.bin
(PID.TID 0000.0001)  MDS_READ_FIELD: opening global file: trenberth_tauy.bin
(PID.TID 0000.0001)  MDS_READ_FIELD: opening global file: ncep_qnet.bin
(PID.TID 0000.0001)  MDS_READ_FIELD: opening global file: ncep_qnet.bin
(PID.TID 0000.0001)  MDS_READ_FIELD: opening global file: ncep_emp.bin
(PID.TID 0000.0001)  MDS_READ_FIELD: opening global file: ncep_emp.bin
(PID.TID 0000.0001)  MDS_READ_FIELD: opening global file: lev_sst.bin
(PID.TID 0000.0001)  MDS_READ_FIELD: opening global file: lev_sst.bin
(PID.TID 0000.0001)  MDS_READ_FIELD: opening global file: lev_sss.bin
(PID.TID 0000.0001)  MDS_READ_FIELD: opening global file: lev_sss.bin
 EXTERNAL_FIELDS_LOAD: (fu0,1),fu,fv= -2.7199E-02 -3.7252E-02 -2.7199E-02 -5.7807E-04
 EXTERNAL_FIELDS_LOAD: SST,SSS,Q,E-P= -1.8390E-01  3.4579E+01  2.1540E+02  9.0808E-06
DEBUG_STATS_RL:          Uvel (THERMODYNAMICS)  min= -1.20261383829009E-01
DEBUG_STATS_RL:          Uvel (THERMODYNAMICS)  max=  1.41078723901980E-01
DEBUG_STATS_RL:          Uvel (THERMODYNAMICS) mean=  6.25955579598299E-03
DEBUG_STATS_RL:          Uvel (THERMODYNAMICS) S.D.=  2.26927759199193E-02
DEBUG_STATS_RL:          Vvel (THERMODYNAMICS)  min= -7.74405673904061E-02
DEBUG_STATS_RL:          Vvel (THERMODYNAMICS)  max=  1.46834612175330E-01
DEBUG_STATS_RL:          Vvel (THERMODYNAMICS) mean=  7.75020378556858E-04
DEBUG_STATS_RL:          Vvel (THERMODYNAMICS) S.D.=  1.35383495233530E-02
DEBUG_STATS_RL:          Wvel (THERMODYNAMICS)  min= -7.37986271340503E-05
DEBUG_STATS_RL:          Wvel (THERMODYNAMICS)  max=  1.57264582462893E-04
DEBUG_STATS_RL:          Wvel (THERMODYNAMICS) mean= -3.28541589950948E-08
DEBUG_STATS_RL:          Wvel (THERMODYNAMICS) S.D.=  9.54779099986887E-06
DEBUG_STATS_RL:         Theta (THERMODYNAMICS)  min= -1.94917616143307E+00
DEBUG_STATS_RL:         Theta (THERMODYNAMICS)  max=  3.09293707125543E+01
DEBUG_STATS_RL:         Theta (THERMODYNAMICS) mean=  3.23129227270930E+00
DEBUG_STATS_RL:         Theta (THERMODYNAMICS) S.D.=  5.88481631675055E+00
DEBUG_STATS_RL:          Salt (THERMODYNAMICS)  min=  9.99999999999997E-03
DEBUG_STATS_RL:          Salt (THERMODYNAMICS)  max=  3.74746524355031E+01
DEBUG_STATS_RL:          Salt (THERMODYNAMICS) mean=  1.88547523436383E+01
DEBUG_STATS_RL:          Salt (THERMODYNAMICS) S.D.=  1.73002991033795E+01
DEBUG_STATS_RL:         GtNm1 (THERMODYNAMICS)  min= -4.49206474627189E-06
DEBUG_STATS_RL:         GtNm1 (THERMODYNAMICS)  max=  2.32324011602211E-06
DEBUG_STATS_RL:         GtNm1 (THERMODYNAMICS) mean=  1.74363145833681E-09
DEBUG_STATS_RL:         GtNm1 (THERMODYNAMICS) S.D.=  1.49152410633913E-07
DEBUG_STATS_RL:         GsNm1 (THERMODYNAMICS)  min= -4.35257119680375E-07
DEBUG_STATS_RL:         GsNm1 (THERMODYNAMICS)  max=  2.87513759691379E-07
DEBUG_STATS_RL:         GsNm1 (THERMODYNAMICS) mean=  3.88777691706479E-11
DEBUG_STATS_RL:         GsNm1 (THERMODYNAMICS) S.D.=  1.35327276289424E-08
DEBUG_STATS_RL:                EtaN (DYNAMICS)  min= -1.96963859865169E+00
DEBUG_STATS_RL:                EtaN (DYNAMICS)  max=  1.04127429222418E+00
DEBUG_STATS_RL:                EtaN (DYNAMICS) mean= -1.97832641500424E-01
DEBUG_STATS_RL:                EtaN (DYNAMICS) S.D.=  7.88269619178200E-01
DEBUG_STATS_RL:                Uvel (DYNAMICS)  min= -1.20261383829009E-01
DEBUG_STATS_RL:                Uvel (DYNAMICS)  max=  1.41078723901980E-01
DEBUG_STATS_RL:                Uvel (DYNAMICS) mean=  6.25955579598299E-03
DEBUG_STATS_RL:                Uvel (DYNAMICS) S.D.=  2.26927759199193E-02
DEBUG_STATS_RL:                Vvel (DYNAMICS)  min= -7.74405673904061E-02
DEBUG_STATS_RL:                Vvel (DYNAMICS)  max=  1.46834612175330E-01
DEBUG_STATS_RL:                Vvel (DYNAMICS) mean=  7.75020378556858E-04
DEBUG_STATS_RL:                Vvel (DYNAMICS) S.D.=  1.35383495233530E-02
DEBUG_STATS_RL:                Wvel (DYNAMICS)  min= -7.37986271340503E-05
DEBUG_STATS_RL:                Wvel (DYNAMICS)  max=  1.57264582462893E-04
DEBUG_STATS_RL:                Wvel (DYNAMICS) mean= -3.28541589950948E-08
DEBUG_STATS_RL:                Wvel (DYNAMICS) S.D.=  9.54779099986887E-06
DEBUG_STATS_RL:               Theta (DYNAMICS)  min= -1.94917616143307E+00
DEBUG_STATS_RL:               Theta (DYNAMICS)  max=  3.09293707125543E+01
DEBUG_STATS_RL:               Theta (DYNAMICS) mean=  3.23129227270930E+00
DEBUG_STATS_RL:               Theta (DYNAMICS) S.D.=  5.88481631675055E+00
DEBUG_STATS_RL:                Salt (DYNAMICS)  min=  9.99999999999997E-03
DEBUG_STATS_RL:                Salt (DYNAMICS)  max=  3.74746524355031E+01
DEBUG_STATS_RL:                Salt (DYNAMICS) mean=  1.88547523436383E+01
DEBUG_STATS_RL:                Salt (DYNAMICS) S.D.=  1.73002991033795E+01
DEBUG_STATS_RL:                  Gu (DYNAMICS)  min= -1.19615210538958E-01
DEBUG_STATS_RL:                  Gu (DYNAMICS)  max=  1.48628204773316E-01
DEBUG_STATS_RL:                  Gu (DYNAMICS) mean=  6.22784048571511E-03
DEBUG_STATS_RL:                  Gu (DYNAMICS) S.D.=  2.31144493647574E-02
DEBUG_STATS_RL:                  Gv (DYNAMICS)  min= -7.98537119006986E-02
DEBUG_STATS_RL:                  Gv (DYNAMICS)  max=  1.46914064375894E-01
DEBUG_STATS_RL:                  Gv (DYNAMICS) mean=  3.51190770395623E-03
DEBUG_STATS_RL:                  Gv (DYNAMICS) S.D.=  1.49502358239197E-02
DEBUG_STATS_RL:               GuNm1 (DYNAMICS)  min= -1.03740126497697E-05
DEBUG_STATS_RL:               GuNm1 (DYNAMICS)  max=  9.31433978878182E-06
DEBUG_STATS_RL:               GuNm1 (DYNAMICS) mean=  8.42558727955096E-09
DEBUG_STATS_RL:               GuNm1 (DYNAMICS) S.D.=  1.22033548708901E-06
DEBUG_STATS_RL:               GvNm1 (DYNAMICS)  min= -9.92557221105536E-06
DEBUG_STATS_RL:               GvNm1 (DYNAMICS)  max=  1.55957833841693E-05
DEBUG_STATS_RL:               GvNm1 (DYNAMICS) mean=  7.37503234062884E-07
DEBUG_STATS_RL:               GvNm1 (DYNAMICS) S.D.=  2.62349467867626E-06
DEBUG_STATS_RL:               GtNm1 (DYNAMICS)  min= -4.49206474627189E-06
DEBUG_STATS_RL:               GtNm1 (DYNAMICS)  max=  2.32324011602211E-06
DEBUG_STATS_RL:               GtNm1 (DYNAMICS) mean=  1.74363145833681E-09
DEBUG_STATS_RL:               GtNm1 (DYNAMICS) S.D.=  1.49152410633913E-07
DEBUG_STATS_RL:               GsNm1 (DYNAMICS)  min= -4.35257119680375E-07
DEBUG_STATS_RL:               GsNm1 (DYNAMICS)  max=  2.87513759691379E-07
DEBUG_STATS_RL:               GsNm1 (DYNAMICS) mean=  3.88777691706479E-11
DEBUG_STATS_RL:               GsNm1 (DYNAMICS) S.D.=  1.35327276289424E-08
DEBUG_STATS_RL:    cg2d_b (SOLVE_FOR_PRESSURE)  min= -2.25752909272851E+04
DEBUG_STATS_RL:    cg2d_b (SOLVE_FOR_PRESSURE)  max=  2.50971935369424E+04
DEBUG_STATS_RL:    cg2d_b (SOLVE_FOR_PRESSURE) mean=  5.10574035806274E+00
DEBUG_STATS_RL:    cg2d_b (SOLVE_FOR_PRESSURE) S.D.=  3.94274884773243E+03
 cg2d: Sum(rhs),rhsMax =   4.70960584159185E-01  1.64845086737765E+00
(PID.TID 0000.0001)  cg2d: iter=     1 ; resid.=  8.96540048504882E-02
(PID.TID 0000.0001)  cg2d: iter=     2 ; resid.=  5.55905117162544E-02
(PID.TID 0000.0001)  cg2d: iter=     3 ; resid.=  4.36569878003147E-02
(PID.TID 0000.0001)  cg2d: iter=     4 ; resid.=  4.03406429663608E-02
(PID.TID 0000.0001)  cg2d: iter=     5 ; resid.=  3.32266791938602E-02
(PID.TID 0000.0001)  cg2d: iter=     6 ; resid.=  2.68482890720822E-02
(PID.TID 0000.0001)  cg2d: iter=     7 ; resid.=  2.29921225097766E-02
(PID.TID 0000.0001)  cg2d: iter=     8 ; resid.=  1.89067207753121E-02
(PID.TID 0000.0001)  cg2d: iter=     9 ; resid.=  1.68871904730504E-02
(PID.TID 0000.0001)  cg2d: iter=    10 ; resid.=  1.43403940202623E-02
(PID.TID 0000.0001)  cg2d: iter=    11 ; resid.=  1.22452757460619E-02
(PID.TID 0000.0001)  cg2d: iter=    12 ; resid.=  1.04924412538540E-02
(PID.TID 0000.0001)  cg2d: iter=    13 ; resid.=  7.88110593731153E-03
(PID.TID 0000.0001)  cg2d: iter=    14 ; resid.=  6.39276189708018E-03
(PID.TID 0000.0001)  cg2d: iter=    15 ; resid.=  5.24497991943261E-03
(PID.TID 0000.0001)  cg2d: iter=    16 ; resid.=  4.27857273010094E-03
(PID.TID 0000.0001)  cg2d: iter=    17 ; resid.=  3.63583328410159E-03
(PID.TID 0000.0001)  cg2d: iter=    18 ; resid.=  3.28310788574901E-03
(PID.TID 0000.0001)  cg2d: iter=    19 ; resid.=  2.74678835066320E-03
(PID.TID 0000.0001)  cg2d: iter=    20 ; resid.=  2.17572605416318E-03
(PID.TID 0000.0001)  cg2d: iter=    21 ; resid.=  1.78628419000903E-03
(PID.TID 0000.0001)  cg2d: iter=    22 ; resid.=  1.59561525804291E-03
(PID.TID 0000.0001)  cg2d: iter=    23 ; resid.=  1.43144963207279E-03
(PID.TID 0000.0001)  cg2d: iter=    24 ; resid.=  1.12802682143274E-03
(PID.TID 0000.0001)  cg2d: iter=    25 ; resid.=  9.02109849819330E-04
(PID.TID 0000.0001)  cg2d: iter=    26 ; resid.=  7.48753499979127E-04
(PID.TID 0000.0001)  cg2d: iter=    27 ; resid.=  6.11769719695995E-04
(PID.TID 0000.0001)  cg2d: iter=    28 ; resid.=  5.33095594407441E-04
(PID.TID 0000.0001)  cg2d: iter=    29 ; resid.=  4.67561083234366E-04
(PID.TID 0000.0001)  cg2d: iter=    30 ; resid.=  4.09108085205882E-04
(PID.TID 0000.0001)  cg2d: iter=    31 ; resid.=  3.51522665108874E-04
(PID.TID 0000.0001)  cg2d: iter=    32 ; resid.=  2.73169199241995E-04
(PID.TID 0000.0001)  cg2d: iter=    33 ; resid.=  2.26838767163412E-04
(PID.TID 0000.0001)  cg2d: iter=    34 ; resid.=  1.90222511962704E-04
(PID.TID 0000.0001)  cg2d: iter=    35 ; resid.=  1.60532741546420E-04
(PID.TID 0000.0001)  cg2d: iter=    36 ; resid.=  1.37102020214874E-04
(PID.TID 0000.0001)  cg2d: iter=    37 ; resid.=  1.13760793486044E-04
(PID.TID 0000.0001)  cg2d: iter=    38 ; resid.=  9.37993610397943E-05
(PID.TID 0000.0001)  cg2d: iter=    39 ; resid.=  7.89059242379933E-05
(PID.TID 0000.0001)  cg2d: iter=    40 ; resid.=  6.72143050023027E-05
(PID.TID 0000.0001)  cg2d: iter=    41 ; resid.=  5.72506025501870E-05
(PID.TID 0000.0001)  cg2d: iter=    42 ; resid.=  5.20397518493278E-05
(PID.TID 0000.0001)  cg2d: iter=    43 ; resid.=  4.53933361928169E-05
(PID.TID 0000.0001)  cg2d: iter=    44 ; resid.=  3.74498671533937E-05
(PID.TID 0000.0001)  cg2d: iter=    45 ; resid.=  3.00730736273871E-05
(PID.TID 0000.0001)  cg2d: iter=    46 ; resid.=  2.37167479140418E-05
(PID.TID 0000.0001)  cg2d: iter=    47 ; resid.=  1.91050336324452E-05
(PID.TID 0000.0001)  cg2d: iter=    48 ; resid.=  1.61942406968053E-05
(PID.TID 0000.0001)  cg2d: iter=    49 ; resid.=  1.33233245611061E-05
(PID.TID 0000.0001)  cg2d: iter=    50 ; resid.=  1.05864673696650E-05
(PID.TID 0000.0001)  cg2d: iter=    51 ; resid.=  8.69971340986306E-06
(PID.TID 0000.0001)  cg2d: iter=    52 ; resid.=  7.30945892186894E-06
(PID.TID 0000.0001)  cg2d: iter=    53 ; resid.=  6.30235427971904E-06
(PID.TID 0000.0001)  cg2d: iter=    54 ; resid.=  5.16702350473563E-06
(PID.TID 0000.0001)  cg2d: iter=    55 ; resid.=  4.40844373436337E-06
(PID.TID 0000.0001)  cg2d: iter=    56 ; resid.=  3.61680553690849E-06
(PID.TID 0000.0001)  cg2d: iter=    57 ; resid.=  3.19166071598219E-06
(PID.TID 0000.0001)  cg2d: iter=    58 ; resid.=  2.43192169302924E-06
(PID.TID 0000.0001)  cg2d: iter=    59 ; resid.=  1.87169792813360E-06
(PID.TID 0000.0001)  cg2d: iter=    60 ; resid.=  1.47575469083979E-06
(PID.TID 0000.0001)  cg2d: iter=    61 ; resid.=  1.21367572474692E-06
(PID.TID 0000.0001)  cg2d: iter=    62 ; resid.=  1.01333428074956E-06
(PID.TID 0000.0001)  cg2d: iter=    63 ; resid.=  8.88459936803731E-07
(PID.TID 0000.0001)  cg2d: iter=    64 ; resid.=  7.44282519531776E-07
(PID.TID 0000.0001)  cg2d: iter=    65 ; resid.=  6.03071657100773E-07
(PID.TID 0000.0001)  cg2d: iter=    66 ; resid.=  4.96668943198832E-07
(PID.TID 0000.0001)  cg2d: iter=    67 ; resid.=  4.15675012941090E-07
(PID.TID 0000.0001)  cg2d: iter=    68 ; resid.=  3.37429750833784E-07
(PID.TID 0000.0001)  cg2d: iter=    69 ; resid.=  2.65724993186961E-07
(PID.TID 0000.0001)  cg2d: iter=    70 ; resid.=  2.02103216769301E-07
(PID.TID 0000.0001)  cg2d: iter=    71 ; resid.=  1.55133005666586E-07
(PID.TID 0000.0001)  cg2d: iter=    72 ; resid.=  1.27425295788203E-07
(PID.TID 0000.0001)  cg2d: iter=    73 ; resid.=  1.12472762710045E-07
(PID.TID 0000.0001)  cg2d: iter=    74 ; resid.=  1.02444147544259E-07
(PID.TID 0000.0001)  cg2d: iter=    75 ; resid.=  8.38022395616161E-08
(PID.TID 0000.0001)  cg2d: iter=    76 ; resid.=  7.02928412176345E-08
(PID.TID 0000.0001)  cg2d: iter=    77 ; resid.=  6.13030749447146E-08
(PID.TID 0000.0001)  cg2d: iter=    78 ; resid.=  5.27597197031786E-08
(PID.TID 0000.0001)  cg2d: iter=    79 ; resid.=  4.86684573307555E-08
(PID.TID 0000.0001)  cg2d: iter=    80 ; resid.=  4.23131784135051E-08
(PID.TID 0000.0001)  cg2d: iter=    81 ; resid.=  3.46875861924633E-08
(PID.TID 0000.0001)  cg2d: iter=    82 ; resid.=  2.55430550781313E-08
(PID.TID 0000.0001)  cg2d: iter=    83 ; resid.=  1.95696339307312E-08
(PID.TID 0000.0001)  cg2d: iter=    84 ; resid.=  1.52027159435896E-08
(PID.TID 0000.0001)  cg2d: iter=    85 ; resid.=  1.10851613777511E-08
(PID.TID 0000.0001)  cg2d: iter=    86 ; resid.=  8.23837095443964E-09
(PID.TID 0000.0001)  cg2d: iter=    87 ; resid.=  6.80592324545662E-09
(PID.TID 0000.0001)  cg2d: iter=    88 ; resid.=  5.34093231535278E-09
(PID.TID 0000.0001)  cg2d: iter=    89 ; resid.=  4.47254715144500E-09
(PID.TID 0000.0001)  cg2d: iter=    90 ; resid.=  3.98840724386940E-09
(PID.TID 0000.0001)  cg2d: iter=    91 ; resid.=  3.03522960013753E-09
(PID.TID 0000.0001)  cg2d: iter=    92 ; resid.=  2.16623848206230E-09
(PID.TID 0000.0001)  cg2d: iter=    93 ; resid.=  1.51814229891477E-09
(PID.TID 0000.0001)  cg2d: iter=    94 ; resid.=  1.13319305637677E-09
(PID.TID 0000.0001)  cg2d: iter=    95 ; resid.=  8.52501530911816E-10
(PID.TID 0000.0001)  cg2d: iter=    96 ; resid.=  6.27428221399847E-10
(PID.TID 0000.0001)  cg2d: iter=    97 ; resid.=  4.66037008735530E-10
(PID.TID 0000.0001)  cg2d: iter=    98 ; resid.=  3.32436319468714E-10
(PID.TID 0000.0001)  cg2d: iter=    99 ; resid.=  2.28349415493696E-10
(PID.TID 0000.0001)  cg2d: iter=   100 ; resid.=  1.83776108507351E-10
(PID.TID 0000.0001)  cg2d: iter=   101 ; resid.=  1.41953617991374E-10
(PID.TID 0000.0001)  cg2d: iter=   102 ; resid.=  1.08612455986124E-10
(PID.TID 0000.0001)  cg2d: iter=   103 ; resid.=  8.67927643495998E-11
(PID.TID 0000.0001)  cg2d: iter=   104 ; resid.=  6.61343691120832E-11
(PID.TID 0000.0001)  cg2d: iter=   105 ; resid.=  5.21268164593832E-11
(PID.TID 0000.0001)  cg2d: iter=   106 ; resid.=  4.19918270227311E-11
(PID.TID 0000.0001)  cg2d: iter=   107 ; resid.=  3.03401945692231E-11
(PID.TID 0000.0001)  cg2d: iter=   108 ; resid.=  2.45452014939982E-11
(PID.TID 0000.0001)  cg2d: iter=   109 ; resid.=  1.89331101940928E-11
(PID.TID 0000.0001)  cg2d: iter=   110 ; resid.=  1.27340470626870E-11
(PID.TID 0000.0001)  cg2d: iter=   111 ; resid.=  9.22625513213057E-12
(PID.TID 0000.0001)  cg2d: iter=   112 ; resid.=  6.20498733089668E-12
(PID.TID 0000.0001)  cg2d: iter=   113 ; resid.=  4.34016748369104E-12
(PID.TID 0000.0001)  cg2d: iter=   114 ; resid.=  3.07659648143107E-12
(PID.TID 0000.0001)  cg2d: iter=   115 ; resid.=  2.32030994306775E-12
(PID.TID 0000.0001)  cg2d: iter=   116 ; resid.=  1.67554062008643E-12
(PID.TID 0000.0001)  cg2d: iter=   117 ; resid.=  1.22905732729204E-12
(PID.TID 0000.0001)  cg2d: iter=   118 ; resid.=  9.10376873617425E-13
(PID.TID 0000.0001)  cg2d: iter=   119 ; resid.=  7.37897815672415E-13
(PID.TID 0000.0001)  cg2d: iter=   120 ; resid.=  5.44467283623500E-13
(PID.TID 0000.0001)  cg2d: iter=   121 ; resid.=  4.14845642585068E-13
(PID.TID 0000.0001)  cg2d: iter=   122 ; resid.=  3.21421144510240E-13
(PID.TID 0000.0001)  cg2d: iter=   123 ; resid.=  2.46444031512276E-13
(PID.TID 0000.0001)  cg2d: iter=   124 ; resid.=  1.89412188540289E-13
(PID.TID 0000.0001)  cg2d: iter=   125 ; resid.=  1.45698433334038E-13
(PID.TID 0000.0001)  cg2d: iter=   126 ; resid.=  1.11995873356148E-13
(PID.TID 0000.0001)  cg2d: iter=   127 ; resid.=  8.89072471988097E-14
DEBUG_STATS_RL:    cg2d_x (SOLVE_FOR_PRESSURE)  min= -1.94407564150795E+01
DEBUG_STATS_RL:    cg2d_x (SOLVE_FOR_PRESSURE)  max=  1.02731401634002E+01
DEBUG_STATS_RL:    cg2d_x (SOLVE_FOR_PRESSURE) mean= -1.94873122337137E+00
DEBUG_STATS_RL:    cg2d_x (SOLVE_FOR_PRESSURE) S.D.=  7.75402542857295E+00
(PID.TID 0000.0001)      cg2d_init_res =   2.53003757367880E-01
(PID.TID 0000.0001)      cg2d_iters(min,last) =      -1     127
(PID.TID 0000.0001)      cg2d_last_res =   8.89072471988097E-14
(PID.TID 0000.0001) // =======================================================
(PID.TID 0000.0001) // Begin MONITOR dynamic field statistics
(PID.TID 0000.0001) // =======================================================
(PID.TID 0000.0001) %MON time_tsnumber                =                    76
(PID.TID 0000.0001) %MON time_secondsf                =   6.5664000000000E+06
(PID.TID 0000.0001) %MON dynstat_eta_max              =   1.0472110258308E+00
(PID.TID 0000.0001) %MON dynstat_eta_min              =  -1.9817284826789E+00
(PID.TID 0000.0001) %MON dynstat_eta_mean             =  -5.3272069727347E-03
(PID.TID 0000.0001) %MON dynstat_eta_sd               =   6.9627457468509E-01
(PID.TID 0000.0001) %MON dynstat_eta_del2             =   2.4472962213616E-03
(PID.TID 0000.0001) %MON dynstat_uvel_max             =   1.4121244869791E-01
(PID.TID 0000.0001) %MON dynstat_uvel_min             =  -1.2180545633046E-01
(PID.TID 0000.0001) %MON dynstat_uvel_mean            =   2.4713588108024E-03
(PID.TID 0000.0001) %MON dynstat_uvel_sd              =   1.4550296896078E-02
(PID.TID 0000.0001) %MON dynstat_uvel_del2            =   8.9869990169060E-05
(PID.TID 0000.0001) %MON dynstat_vvel_max             =   1.4491761506886E-01
(PID.TID 0000.0001) %MON dynstat_vvel_min             =  -7.4477955136626E-02
(PID.TID 0000.0001) %MON dynstat_vvel_mean            =  -5.5131640374668E-05
(PID.TID 0000.0001) %MON dynstat_vvel_sd              =   8.3576305672261E-03
(PID.TID 0000.0001) %MON dynstat_vvel_del2            =   7.4436565190089E-05
(PID.TID 0000.0001) %MON dynstat_wvel_max             =   1.6779884154612E-04
(PID.TID 0000.0001) %MON dynstat_wvel_min             =  -7.0965397051723E-05
(PID.TID 0000.0001) %MON dynstat_wvel_mean            =  -4.3608824631825E-24
(PID.TID 0000.0001) %MON dynstat_wvel_sd              =   1.0776956153604E-05
(PID.TID 0000.0001) %MON dynstat_wvel_del2            =   1.0672838107316E-07
(PID.TID 0000.0001) %MON dynstat_theta_max            =   3.0929370712554E+01
(PID.TID 0000.0001) %MON dynstat_theta_min            =  -1.9491761614331E+00
(PID.TID 0000.0001) %MON dynstat_theta_mean           =   3.6339364673025E+00
(PID.TID 0000.0001) %MON dynstat_theta_sd             =   4.4268001585626E+00
(PID.TID 0000.0001) %MON dynstat_theta_del2           =   4.8563942673062E-03
(PID.TID 0000.0001) %MON dynstat_salt_max             =   3.7474652435503E+01
(PID.TID 0000.0001) %MON dynstat_salt_min             =   2.9911832485557E+01
(PID.TID 0000.0001) %MON dynstat_salt_mean            =   3.4728012925637E+01
(PID.TID 0000.0001) %MON dynstat_salt_sd              =   2.9657580416193E-01
(PID.TID 0000.0001) %MON dynstat_salt_del2            =   9.9103654047284E-04
(PID.TID 0000.0001) %MON dynstat_sst_max              =   3.0929370712554E+01
(PID.TID 0000.0001) %MON dynstat_sst_min              =  -1.9491761614331E+00
(PID.TID 0000.0001) %MON dynstat_sst_mean             =   1.9063461026330E+01
(PID.TID 0000.0001) %MON dynstat_sst_sd               =   9.1490575332731E+00
(PID.TID 0000.0001) %MON dynstat_sst_del2             =   2.8641719702292E-02
(PID.TID 0000.0001) %MON dynstat_sss_max              =   3.7467424406490E+01
(PID.TID 0000.0001) %MON dynstat_sss_min              =   2.9911832485557E+01
(PID.TID 0000.0001) %MON dynstat_sss_mean             =   3.4847895567695E+01
(PID.TID 0000.0001) %MON dynstat_sss_sd               =   9.8549427986773E-01
(PID.TID 0000.0001) %MON dynstat_sss_del2             =   8.1447737532991E-03
(PID.TID 0000.0001) %MON forcing_qnet_max             =   2.7450769042969E+02
(PID.TID 0000.0001) %MON forcing_qnet_min             =  -1.6385559082031E+02
(PID.TID 0000.0001) %MON forcing_qnet_mean            =  -7.2650659901446E+00
(PID.TID 0000.0001) %MON forcing_qnet_sd              =   4.6489538210055E+01
(PID.TID 0000.0001) %MON forcing_qnet_del2            =   8.5238739722118E-01
(PID.TID 0000.0001) %MON forcing_qsw_max              =   0.0000000000000E+00
(PID.TID 0000.0001) %MON forcing_qsw_min              =   0.0000000000000E+00
(PID.TID 0000.0001) %MON forcing_qsw_mean             =   0.0000000000000E+00
(PID.TID 0000.0001) %MON forcing_qsw_sd               =   0.0000000000000E+00
(PID.TID 0000.0001) %MON forcing_qsw_del2             =   0.0000000000000E+00
(PID.TID 0000.0001) %MON forcing_empmr_max            =   6.9108821776354E-05
(PID.TID 0000.0001) %MON forcing_empmr_min            =  -8.3264417582996E-05
(PID.TID 0000.0001) %MON forcing_empmr_mean           =   5.5071105367869E-07
(PID.TID 0000.0001) %MON forcing_empmr_sd             =   2.6288642314053E-05
(PID.TID 0000.0001) %MON forcing_empmr_del2           =   3.6649371259951E-07
(PID.TID 0000.0001) %MON forcing_fu_max               =   3.5755139589310E-01
(PID.TID 0000.0001) %MON forcing_fu_min               =  -3.8855642080307E-01
(PID.TID 0000.0001) %MON forcing_fu_mean              =   2.0456729300388E-02
(PID.TID 0000.0001) %MON forcing_fu_sd                =   1.0213469725884E-01
(PID.TID 0000.0001) %MON forcing_fu_del2              =   8.4850782651584E-04
(PID.TID 0000.0001) %MON forcing_fv_max               =   1.8330034613609E-01
(PID.TID 0000.0001) %MON forcing_fv_min               =  -1.9333162903786E-01
(PID.TID 0000.0001) %MON forcing_fv_mean              =  -7.5295754400446E-03
(PID.TID 0000.0001) %MON forcing_fv_sd                =   4.2684681983358E-02
(PID.TID 0000.0001) %MON forcing_fv_del2              =   5.0763502385068E-04
(PID.TID 0000.0001) %MON trAdv_CFL_u_max              =   4.6641014466048E-02
(PID.TID 0000.0001) %MON trAdv_CFL_v_max              =   2.8411359634251E-02
(PID.TID 0000.0001) %MON trAdv_CFL_w_max              =   3.4840153653318E-02
(PID.TID 0000.0001) %MON advcfl_uvel_max              =   4.5432350785822E-02
(PID.TID 0000.0001) %MON advcfl_vvel_max              =   2.8155168408763E-02
(PID.TID 0000.0001) %MON advcfl_wvel_max              =   3.9720054546807E-02
(PID.TID 0000.0001) %MON advcfl_W_hf_max              =   4.2640646792896E-02
(PID.TID 0000.0001) %MON pe_b_mean                    =   6.2039415218223E-04
(PID.TID 0000.0001) %MON ke_max                       =   1.3491961687837E-02
(PID.TID 0000.0001) %MON ke_mean                      =   1.3031844272551E-04
(PID.TID 0000.0001) %MON ke_vol                       =   1.3226782436723E+18
(PID.TID 0000.0001) %MON vort_r_min                   =  -3.4378648632180E-07
(PID.TID 0000.0001) %MON vort_r_max                   =   3.9976210898523E-07
(PID.TID 0000.0001) %MON vort_a_mean                  =  -2.5274806769270E-05
(PID.TID 0000.0001) %MON vort_a_sd                    =   7.3604680420817E-05
(PID.TID 0000.0001) %MON vort_p_mean                  =  -3.1845655007980E-05
(PID.TID 0000.0001) %MON vort_p_sd                    =   1.3162516457913E-04
(PID.TID 0000.0001) %MON surfExpan_theta_mean         =   1.9703982956545E-07
(PID.TID 0000.0001) %MON surfExpan_salt_mean          =  -1.0317711475343E-08
(PID.TID 0000.0001) // =======================================================
(PID.TID 0000.0001) // End MONITOR dynamic field statistics
(PID.TID 0000.0001) // =======================================================
 EXTERNAL_FIELDS_LOAD,        76 : iP,iLd,i0,i1=    3    4    3    4 ; Wght=  0.9666666667  0.0333333333
 EXTERNAL_FIELDS_LOAD: (fu0,1),fu,fv= -2.7199E-02 -3.7252E-02 -2.7534E-02 -1.7327E-03
 EXTERNAL_FIELDS_LOAD: SST,SSS,Q,E-P= -1.7660E-01  3.4579E+01  2.1169E+02  9.0370E-06
DEBUG_STATS_RL:          Uvel (THERMODYNAMICS)  min= -1.21805456330456E-01
DEBUG_STATS_RL:          Uvel (THERMODYNAMICS)  max=  1.41212448697913E-01
DEBUG_STATS_RL:          Uvel (THERMODYNAMICS) mean=  6.28764460920707E-03
DEBUG_STATS_RL:          Uvel (THERMODYNAMICS) S.D.=  2.26955261828742E-02
DEBUG_STATS_RL:          Vvel (THERMODYNAMICS)  min= -7.44779551366255E-02
DEBUG_STATS_RL:          Vvel (THERMODYNAMICS)  max=  1.44917615068861E-01
DEBUG_STATS_RL:          Vvel (THERMODYNAMICS) mean=  8.38223287932547E-04
DEBUG_STATS_RL:          Vvel (THERMODYNAMICS) S.D.=  1.35480106166903E-02
DEBUG_STATS_RL:          Wvel (THERMODYNAMICS)  min= -7.09653970517227E-05
DEBUG_STATS_RL:          Wvel (THERMODYNAMICS)  max=  1.67798841546119E-04
DEBUG_STATS_RL:          Wvel (THERMODYNAMICS) mean= -1.98892095531103E-08
DEBUG_STATS_RL:          Wvel (THERMODYNAMICS) S.D.=  9.55873062839987E-06
DEBUG_STATS_RL:         Theta (THERMODYNAMICS)  min= -1.94802848683882E+00
DEBUG_STATS_RL:         Theta (THERMODYNAMICS)  max=  3.09530639075394E+01
DEBUG_STATS_RL:         Theta (THERMODYNAMICS) mean=  3.23131972219155E+00
DEBUG_STATS_RL:         Theta (THERMODYNAMICS) S.D.=  5.88527614887486E+00
DEBUG_STATS_RL:          Salt (THERMODYNAMICS)  min=  9.99999999999997E-03
DEBUG_STATS_RL:          Salt (THERMODYNAMICS)  max=  3.74742527707279E+01
DEBUG_STATS_RL:          Salt (THERMODYNAMICS) mean=  1.88547582093291E+01
DEBUG_STATS_RL:          Salt (THERMODYNAMICS) S.D.=  1.73003052344873E+01
DEBUG_STATS_RL:         GtNm1 (THERMODYNAMICS)  min= -4.52254063034373E-06
DEBUG_STATS_RL:         GtNm1 (THERMODYNAMICS)  max=  2.35725941713224E-06
DEBUG_STATS_RL:         GtNm1 (THERMODYNAMICS) mean=  1.44483320856493E-09
DEBUG_STATS_RL:         GtNm1 (THERMODYNAMICS) S.D.=  1.49083641427231E-07
DEBUG_STATS_RL:         GsNm1 (THERMODYNAMICS)  min= -4.42366874016764E-07
DEBUG_STATS_RL:         GsNm1 (THERMODYNAMICS)  max=  2.92228839085468E-07
DEBUG_STATS_RL:         GsNm1 (THERMODYNAMICS) mean=  5.03375147987370E-11
DEBUG_STATS_RL:         GsNm1 (THERMODYNAMICS) S.D.=  1.35929816073042E-08
DEBUG_STATS_RL:                EtaN (DYNAMICS)  min= -1.98172848267892E+00
DEBUG_STATS_RL:                EtaN (DYNAMICS)  max=  1.04721102583079E+00
DEBUG_STATS_RL:                EtaN (DYNAMICS) mean= -1.98647423381382E-01
DEBUG_STATS_RL:                EtaN (DYNAMICS) S.D.=  7.90420532983988E-01
DEBUG_STATS_RL:                Uvel (DYNAMICS)  min= -1.21805456330456E-01
DEBUG_STATS_RL:                Uvel (DYNAMICS)  max=  1.41212448697913E-01
DEBUG_STATS_RL:                Uvel (DYNAMICS) mean=  6.28764460920707E-03
DEBUG_STATS_RL:                Uvel (DYNAMICS) S.D.=  2.26955261828742E-02
DEBUG_STATS_RL:                Vvel (DYNAMICS)  min= -7.44779551366255E-02
DEBUG_STATS_RL:                Vvel (DYNAMICS)  max=  1.44917615068861E-01
DEBUG_STATS_RL:                Vvel (DYNAMICS) mean=  8.38223287932547E-04
DEBUG_STATS_RL:                Vvel (DYNAMICS) S.D.=  1.35480106166903E-02
DEBUG_STATS_RL:                Wvel (DYNAMICS)  min= -7.09653970517227E-05
DEBUG_STATS_RL:                Wvel (DYNAMICS)  max=  1.67798841546119E-04
DEBUG_STATS_RL:                Wvel (DYNAMICS) mean= -1.98892095531103E-08
DEBUG_STATS_RL:                Wvel (DYNAMICS) S.D.=  9.55873062839987E-06
DEBUG_STATS_RL:               Theta (DYNAMICS)  min= -1.94802848683882E+00
DEBUG_STATS_RL:               Theta (DYNAMICS)  max=  3.09530639075394E+01
DEBUG_STATS_RL:               Theta (DYNAMICS) mean=  3.23131972219155E+00
DEBUG_STATS_RL:               Theta (DYNAMICS) S.D.=  5.88527614887486E+00
DEBUG_STATS_RL:                Salt (DYNAMICS)  min=  9.99999999999997E-03
DEBUG_STATS_RL:                Salt (DYNAMICS)  max=  3.74742527707279E+01
DEBUG_STATS_RL:                Salt (DYNAMICS) mean=  1.88547582093291E+01
DEBUG_STATS_RL:                Salt (DYNAMICS) S.D.=  1.73003052344873E+01
DEBUG_STATS_RL:                  Gu (DYNAMICS)  min= -1.21123547275705E-01
DEBUG_STATS_RL:                  Gu (DYNAMICS)  max=  1.51367993516106E-01
DEBUG_STATS_RL:                  Gu (DYNAMICS) mean=  6.25368142845779E-03
DEBUG_STATS_RL:                  Gu (DYNAMICS) S.D.=  2.30951994757897E-02
DEBUG_STATS_RL:                  Gv (DYNAMICS)  min= -7.53816931464746E-02
DEBUG_STATS_RL:                  Gv (DYNAMICS)  max=  1.44972597228922E-01
DEBUG_STATS_RL:                  Gv (DYNAMICS) mean=  3.55912980808117E-03
DEBUG_STATS_RL:                  Gv (DYNAMICS) S.D.=  1.49961822612748E-02
DEBUG_STATS_RL:               GuNm1 (DYNAMICS)  min= -1.03850705464746E-05
DEBUG_STATS_RL:               GuNm1 (DYNAMICS)  max=  9.31311291562815E-06
DEBUG_STATS_RL:               GuNm1 (DYNAMICS) mean=  8.50546328825513E-09
DEBUG_STATS_RL:               GuNm1 (DYNAMICS) S.D.=  1.22042981184526E-06
DEBUG_STATS_RL:               GvNm1 (DYNAMICS)  min= -9.86606854159182E-06
DEBUG_STATS_RL:               GvNm1 (DYNAMICS)  max=  1.55873001096325E-05
DEBUG_STATS_RL:               GvNm1 (DYNAMICS) mean=  7.37492896727599E-07
DEBUG_STATS_RL:               GvNm1 (DYNAMICS) S.D.=  2.62153089706689E-06
DEBUG_STATS_RL:               GtNm1 (DYNAMICS)  min= -4.52254063034373E-06
DEBUG_STATS_RL:               GtNm1 (DYNAMICS)  max=  2.35725941713224E-06
DEBUG_STATS_RL:               GtNm1 (DYNAMICS) mean=  1.44483320856493E-09
DEBUG_STATS_RL:               GtNm1 (DYNAMICS) S.D.=  1.49083641427231E-07
DEBUG_STATS_RL:               GsNm1 (DYNAMICS)  min= -4.42366874016764E-07
DEBUG_STATS_RL:               GsNm1 (DYNAMICS)  max=  2.92228839085468E-07
DEBUG_STATS_RL:               GsNm1 (DYNAMICS) mean=  5.03375147987370E-11
DEBUG_STATS_RL:               GsNm1 (DYNAMICS) S.D.=  1.35929816073042E-08
DEBUG_STATS_RL:    cg2d_b (SOLVE_FOR_PRESSURE)  min= -2.32673096152527E+04
DEBUG_STATS_RL:    cg2d_b (SOLVE_FOR_PRESSURE)  max=  2.56909862254237E+04
DEBUG_STATS_RL:    cg2d_b (SOLVE_FOR_PRESSURE) mean=  5.14800575501375E+00
DEBUG_STATS_RL:    cg2d_b (SOLVE_FOR_PRESSURE) S.D.=  3.94659276445675E+03
 cg2d: Sum(rhs),rhsMax =   4.63883839191175E-01  1.68745276099291E+00
(PID.TID 0000.0001)  cg2d: iter=     1 ; resid.=  8.61768364472107E-02
(PID.TID 0000.0001)  cg2d: iter=     2 ; resid.=  5.18094831596961E-02
(PID.TID 0000.0001)  cg2d: iter=     3 ; resid.=  3.92980244622632E-02
(PID.TID 0000.0001)  cg2d: iter=     4 ; resid.=  3.58753724014570E-02
(PID.TID 0000.0001)  cg2d: iter=     5 ; resid.=  2.84816198851951E-02
(PID.TID 0000.0001)  cg2d: iter=     6 ; resid.=  2.15768592697938E-02
(PID.TID 0000.0001)  cg2d: iter=     7 ; resid.=  1.75123814100423E-02
(PID.TID 0000.0001)  cg2d: iter=     8 ; resid.=  1.41818640683523E-02
(PID.TID 0000.0001)  cg2d: iter=     9 ; resid.=  1.26336701535644E-02
(PID.TID 0000.0001)  cg2d: iter=    10 ; resid.=  1.10384727013570E-02
(PID.TID 0000.0001)  cg2d: iter=    11 ; resid.=  9.52762307179269E-03
(PID.TID 0000.0001)  cg2d: iter=    12 ; resid.=  8.30178890383278E-03
(PID.TID 0000.0001)  cg2d: iter=    13 ; resid.=  6.39458115652721E-03
(PID.TID 0000.0001)  cg2d: iter=    14 ; resid.=  5.31583199915835E-03
(PID.TID 0000.0001)  cg2d: iter=    15 ; resid.=  4.51115912628168E-03
(PID.TID 0000.0001)  cg2d: iter=    16 ; resid.=  3.65882749708405E-03
(PID.TID 0000.0001)  cg2d: iter=    17 ; resid.=  3.03426694264882E-03
(PID.TID 0000.0001)  cg2d: iter=    18 ; resid.=  2.66193830663377E-03
(PID.TID 0000.0001)  cg2d: iter=    19 ; resid.=  2.24012612865418E-03
(PID.TID 0000.0001)  cg2d: iter=    20 ; resid.=  1.82952594260686E-03
(PID.TID 0000.0001)  cg2d: iter=    21 ; resid.=  1.49723018731378E-03
(PID.TID 0000.0001)  cg2d: iter=    22 ; resid.=  1.33614648618279E-03
(PID.TID 0000.0001)  cg2d: iter=    23 ; resid.=  1.20505261786810E-03
(PID.TID 0000.0001)  cg2d: iter=    24 ; resid.=  9.46512928933463E-04
(PID.TID 0000.0001)  cg2d: iter=    25 ; resid.=  7.62117695238969E-04
(PID.TID 0000.0001)  cg2d: iter=    26 ; resid.=  6.37053704545775E-04
(PID.TID 0000.0001)  cg2d: iter=    27 ; resid.=  5.26639661905396E-04
(PID.TID 0000.0001)  cg2d: iter=    28 ; resid.=  4.60997783630477E-04
(PID.TID 0000.0001)  cg2d: iter=    29 ; resid.=  4.07016919039020E-04
(PID.TID 0000.0001)  cg2d: iter=    30 ; resid.=  3.60480317930414E-04
(PID.TID 0000.0001)  cg2d: iter=    31 ; resid.=  3.15572772380673E-04
(PID.TID 0000.0001)  cg2d: iter=    32 ; resid.=  2.51857263377337E-04
(PID.TID 0000.0001)  cg2d: iter=    33 ; resid.=  2.12680387675234E-04
(PID.TID 0000.0001)  cg2d: iter=    34 ; resid.=  1.79032798542554E-04
(PID.TID 0000.0001)  cg2d: iter=    35 ; resid.=  1.48674609372993E-04
(PID.TID 0000.0001)  cg2d: iter=    36 ; resid.=  1.24257249144745E-04
(PID.TID 0000.0001)  cg2d: iter=    37 ; resid.=  1.01727728251501E-04
(PID.TID 0000.0001)  cg2d: iter=    38 ; resid.=  8.09750115464096E-05
(PID.TID 0000.0001)  cg2d: iter=    39 ; resid.=  6.50228603833039E-05
(PID.TID 0000.0001)  cg2d: iter=    40 ; resid.=  5.22073863651536E-05
(PID.TID 0000.0001)  cg2d: iter=    41 ; resid.=  4.22975819363364E-05
(PID.TID 0000.0001)  cg2d: iter=    42 ; resid.=  3.72922358996521E-05
(PID.TID 0000.0001)  cg2d: iter=    43 ; resid.=  3.30518349088150E-05
(PID.TID 0000.0001)  cg2d: iter=    44 ; resid.=  2.85539157913189E-05
(PID.TID 0000.0001)  cg2d: iter=    45 ; resid.=  2.33704452206821E-05
(PID.TID 0000.0001)  cg2d: iter=    46 ; resid.=  1.88018854193253E-05
(PID.TID 0000.0001)  cg2d: iter=    47 ; resid.=  1.53461923144649E-05
(PID.TID 0000.0001)  cg2d: iter=    48 ; resid.=  1.33642594894251E-05
(PID.TID 0000.0001)  cg2d: iter=    49 ; resid.=  1.11026819395531E-05
(PID.TID 0000.0001)  cg2d: iter=    50 ; resid.=  8.56218731372599E-06
(PID.TID 0000.0001)  cg2d: iter=    51 ; resid.=  6.73268844079805E-06
(PID.TID 0000.0001)  cg2d: iter=    52 ; resid.=  5.49720464549449E-06
(PID.TID 0000.0001)  cg2d: iter=    53 ; resid.=  4.78056636140654E-06
(PID.TID 0000.0001)  cg2d: iter=    54 ; resid.=  3.94602588085702E-06
(PID.TID 0000.0001)  cg2d: iter=    55 ; resid.=  3.36502254559378E-06
(PID.TID 0000.0001)  cg2d: iter=    56 ; resid.=  2.77118915849217E-06
(PID.TID 0000.0001)  cg2d: iter=    57 ; resid.=  2.46756271572110E-06
(PID.TID 0000.0001)  cg2d: iter=    58 ; resid.=  1.90189676032795E-06
(PID.TID 0000.0001)  cg2d: iter=    59 ; resid.=  1.44157723575343E-06
(PID.TID 0000.0001)  cg2d: iter=    60 ; resid.=  1.10229364755009E-06
(PID.TID 0000.0001)  cg2d: iter=    61 ; resid.=  8.64453802396612E-07
(PID.TID 0000.0001)  cg2d: iter=    62 ; resid.=  6.80469523940452E-07
(PID.TID 0000.0001)  cg2d: iter=    63 ; resid.=  5.61202937884550E-07
(PID.TID 0000.0001)  cg2d: iter=    64 ; resid.=  4.55674155041758E-07
(PID.TID 0000.0001)  cg2d: iter=    65 ; resid.=  3.66468745680986E-07
(PID.TID 0000.0001)  cg2d: iter=    66 ; resid.=  2.97553393408208E-07
(PID.TID 0000.0001)  cg2d: iter=    67 ; resid.=  2.54207404484313E-07
(PID.TID 0000.0001)  cg2d: iter=    68 ; resid.=  2.13211545054667E-07
(PID.TID 0000.0001)  cg2d: iter=    69 ; resid.=  1.71425067432909E-07
(PID.TID 0000.0001)  cg2d: iter=    70 ; resid.=  1.31456082382354E-07
(PID.TID 0000.0001)  cg2d: iter=    71 ; resid.=  9.75495565300878E-08
(PID.TID 0000.0001)  cg2d: iter=    72 ; resid.=  7.58109654236298E-08
(PID.TID 0000.0001)  cg2d: iter=    73 ; resid.=  6.10823647591788E-08
(PID.TID 0000.0001)  cg2d: iter=    74 ; resid.=  5.05446382095565E-08
(PID.TID 0000.0001)  cg2d: iter=    75 ; resid.=  3.67314870875186E-08
(PID.TID 0000.0001)  cg2d: iter=    76 ; resid.=  2.68438482987112E-08
(PID.TID 0000.0001)  cg2d: iter=    77 ; resid.=  1.97320442373981E-08
(PID.TID 0000.0001)  cg2d: iter=    78 ; resid.=  1.42218703504735E-08
(PID.TID 0000.0001)  cg2d: iter=    79 ; resid.=  1.09497337145861E-08
(PID.TID 0000.0001)  cg2d: iter=    80 ; resid.=  8.89166033992909E-09
(PID.TID 0000.0001)  cg2d: iter=    81 ; resid.=  7.46111089757323E-09
(PID.TID 0000.0001)  cg2d: iter=    82 ; resid.=  6.02803444632041E-09
(PID.TID 0000.0001)  cg2d: iter=    83 ; resid.=  4.95469887198219E-09
(PID.TID 0000.0001)  cg2d: iter=    84 ; resid.=  4.36498465101185E-09
(PID.TID 0000.0001)  cg2d: iter=    85 ; resid.=  3.46511476670329E-09
(PID.TID 0000.0001)  cg2d: iter=    86 ; resid.=  2.53761711825834E-09
(PID.TID 0000.0001)  cg2d: iter=    87 ; resid.=  2.03284496510414E-09
(PID.TID 0000.0001)  cg2d: iter=    88 ; resid.=  1.55721614466217E-09
(PID.TID 0000.0001)  cg2d: iter=    89 ; resid.=  1.24217005038840E-09
(PID.TID 0000.0001)  cg2d: iter=    90 ; resid.=  1.15064358424959E-09
(PID.TID 0000.0001)  cg2d: iter=    91 ; resid.=  1.03268959354750E-09
(PID.TID 0000.0001)  cg2d: iter=    92 ; resid.=  9.17947473466882E-10
(PID.TID 0000.0001)  cg2d: iter=    93 ; resid.=  7.45638597491689E-10
(PID.TID 0000.0001)  cg2d: iter=    94 ; resid.=  6.25352367523021E-10
(PID.TID 0000.0001)  cg2d: iter=    95 ; resid.=  5.26898921484717E-10
(PID.TID 0000.0001)  cg2d: iter=    96 ; resid.=  4.22234735612144E-10
(PID.TID 0000.0001)  cg2d: iter=    97 ; resid.=  3.42440290585191E-10
(PID.TID 0000.0001)  cg2d: iter=    98 ; resid.=  2.67461662843494E-10
(PID.TID 0000.0001)  cg2d: iter=    99 ; resid.=  2.01858556726608E-10
(PID.TID 0000.0001)  cg2d: iter=   100 ; resid.=  1.70130995397275E-10
(PID.TID 0000.0001)  cg2d: iter=   101 ; resid.=  1.40379759496285E-10
(PID.TID 0000.0001)  cg2d: iter=   102 ; resid.=  1.16471662624001E-10
(PID.TID 0000.0001)  cg2d: iter=   103 ; resid.=  1.02119260837823E-10
(PID.TID 0000.0001)  cg2d: iter=   104 ; resid.=  8.67694809837887E-11
(PID.TID 0000.0001)  cg2d: iter=   105 ; resid.=  7.70004829328031E-11
(PID.TID 0000.0001)  cg2d: iter=   106 ; resid.=  6.77632190181555E-11
(PID.TID 0000.0001)  cg2d: iter=   107 ; resid.=  5.33555820071622E-11
(PID.TID 0000.0001)  cg2d: iter=   108 ; resid.=  4.75499065531041E-11
(PID.TID 0000.0001)  cg2d: iter=   109 ; resid.=  3.84326346629746E-11
(PID.TID 0000.0001)  cg2d: iter=   110 ; resid.=  2.82935313965146E-11
(PID.TID 0000.0001)  cg2d: iter=   111 ; resid.=  2.35158421653848E-11
(PID.TID 0000.0001)  cg2d: iter=   112 ; resid.=  1.82885189504743E-11
(PID.TID 0000.0001)  cg2d: iter=   113 ; resid.=  1.52995918008558E-11
(PID.TID 0000.0001)  cg2d: iter=   114 ; resid.=  1.25445942517120E-11
(PID.TID 0000.0001)  cg2d: iter=   115 ; resid.=  1.00963544354307E-11
(PID.TID 0000.0001)  cg2d: iter=   116 ; resid.=  7.45196006599493E-12
(PID.TID 0000.0001)  cg2d: iter=   117 ; resid.=  5.63426719468874E-12
(PID.TID 0000.0001)  cg2d: iter=   118 ; resid.=  4.36608275953672E-12
(PID.TID 0000.0001)  cg2d: iter=   119 ; resid.=  3.39261410741593E-12
(PID.TID 0000.0001)  cg2d: iter=   120 ; resid.=  2.37450208005577E-12
(PID.TID 0000.0001)  cg2d: iter=   121 ; resid.=  1.77493344862627E-12
(PID.TID 0000.0001)  cg2d: iter=   122 ; resid.=  1.36428677133043E-12
(PID.TID 0000.0001)  cg2d: iter=   123 ; resid.=  1.03324020769006E-12
(PID.TID 0000.0001)  cg2d: iter=   124 ; resid.=  8.13057734623310E-13
(PID.TID 0000.0001)  cg2d: iter=   125 ; resid.=  6.23437965333512E-13
(PID.TID 0000.0001)  cg2d: iter=   126 ; resid.=  4.65485778631993E-13
(PID.TID 0000.0001)  cg2d: iter=   127 ; resid.=  3.45435189572413E-13
(PID.TID 0000.0001)  cg2d: iter=   128 ; resid.=  2.37979935491195E-13
(PID.TID 0000.0001)  cg2d: iter=   129 ; resid.=  1.61940776674457E-13
(PID.TID 0000.0001)  cg2d: iter=   130 ; resid.=  1.23289223987548E-13
(PID.TID 0000.0001)  cg2d: iter=   131 ; resid.=  9.77468132001609E-14
DEBUG_STATS_RL:    cg2d_x (SOLVE_FOR_PRESSURE)  min= -1.95319820905745E+01
DEBUG_STATS_RL:    cg2d_x (SOLVE_FOR_PRESSURE)  max=  1.02973369530089E+01
DEBUG_STATS_RL:    cg2d_x (SOLVE_FOR_PRESSURE) mean= -1.95439462616154E+00
DEBUG_STATS_RL:    cg2d_x (SOLVE_FOR_PRESSURE) S.D.=  7.76081928957986E+00
(PID.TID 0000.0001)      cg2d_init_res =   2.44436918050499E-01
(PID.TID 0000.0001)      cg2d_iters(min,last) =      -1     131
(PID.TID 0000.0001)      cg2d_last_res =   9.77468132001609E-14
(PID.TID 0000.0001) // =======================================================
(PID.TID 0000.0001) // Begin MONITOR dynamic field statistics
(PID.TID 0000.0001) // =======================================================
(PID.TID 0000.0001) %MON time_tsnumber                =                    77
(PID.TID 0000.0001) %MON time_secondsf                =   6.6528000000000E+06
(PID.TID 0000.0001) %MON dynstat_eta_max              =   1.0496775691141E+00
(PID.TID 0000.0001) %MON dynstat_eta_min              =  -1.9910277360422E+00
(PID.TID 0000.0001) %MON dynstat_eta_mean             =  -5.3713056737170E-03
(PID.TID 0000.0001) %MON dynstat_eta_sd               =   6.9670570679071E-01
(PID.TID 0000.0001) %MON dynstat_eta_del2             =   2.4550021901953E-03
(PID.TID 0000.0001) %MON dynstat_uvel_max             =   1.4391659179448E-01
(PID.TID 0000.0001) %MON dynstat_uvel_min             =  -1.2332117627376E-01
(PID.TID 0000.0001) %MON dynstat_uvel_mean            =   2.4877158933420E-03
(PID.TID 0000.0001) %MON dynstat_uvel_sd              =   1.4560750857229E-02
(PID.TID 0000.0001) %MON dynstat_uvel_del2            =   9.0175559913207E-05
(PID.TID 0000.0001) %MON dynstat_vvel_max             =   1.4268453458490E-01
(PID.TID 0000.0001) %MON dynstat_vvel_min             =  -7.3610305814849E-02
(PID.TID 0000.0001) %MON dynstat_vvel_mean            =  -4.9180257023859E-05
(PID.TID 0000.0001) %MON dynstat_vvel_sd              =   8.3514649437345E-03
(PID.TID 0000.0001) %MON dynstat_vvel_del2            =   7.4529631077402E-05
(PID.TID 0000.0001) %MON dynstat_wvel_max             =   1.7670991406397E-04
(PID.TID 0000.0001) %MON dynstat_wvel_min             =  -6.8018154774210E-05
(PID.TID 0000.0001) %MON dynstat_wvel_mean            =   3.5902018543045E-23
(PID.TID 0000.0001) %MON dynstat_wvel_sd              =   1.0754693747093E-05
(PID.TID 0000.0001) %MON dynstat_wvel_del2            =   1.0677753276202E-07
(PID.TID 0000.0001) %MON dynstat_theta_max            =   3.0953063907539E+01
(PID.TID 0000.0001) %MON dynstat_theta_min            =  -1.9480284868388E+00
(PID.TID 0000.0001) %MON dynstat_theta_mean           =   3.6339705016402E+00
(PID.TID 0000.0001) %MON dynstat_theta_sd             =   4.4269853360956E+00
(PID.TID 0000.0001) %MON dynstat_theta_del2           =   4.8538610910999E-03
(PID.TID 0000.0001) %MON dynstat_salt_max             =   3.7474252770728E+01
(PID.TID 0000.0001) %MON dynstat_salt_min             =   2.9913787121607E+01
(PID.TID 0000.0001) %MON dynstat_salt_mean            =   3.4728013635318E+01
(PID.TID 0000.0001) %MON dynstat_salt_sd              =   2.9658381374194E-01
(PID.TID 0000.0001) %MON dynstat_salt_del2            =   9.9155779162458E-04
(PID.TID 0000.0001) %MON dynstat_sst_max              =   3.0953063907539E+01
(PID.TID 0000.0001) %MON dynstat_sst_min              =  -1.9480284868388E+00
(PID.TID 0000.0001) %MON dynstat_sst_mean             =   1.9065301428828E+01
(PID.TID 0000.0001) %MON dynstat_sst_sd               =   9.1562979269030E+00
(PID.TID 0000.0001) %MON dynstat_sst_del2             =   2.8695104314845E-02
(PID.TID 0000.0001) %MON dynstat_sss_max              =   3.7468039067656E+01
(PID.TID 0000.0001) %MON dynstat_sss_min              =   2.9913787121607E+01
(PID.TID 0000.0001) %MON dynstat_sss_mean             =   3.4847900006895E+01
(PID.TID 0000.0001) %MON dynstat_sss_sd               =   9.8581262377933E-01
(PID.TID 0000.0001) %MON dynstat_sss_del2             =   8.1565075437279E-03
(PID.TID 0000.0001) %MON forcing_qnet_max             =   2.6980245564779E+02
(PID.TID 0000.0001) %MON forcing_qnet_min             =  -1.6342759450277E+02
(PID.TID 0000.0001) %MON forcing_qnet_mean            =  -6.8680295611749E+00
(PID.TID 0000.0001) %MON forcing_qnet_sd              =   4.5566183658410E+01
(PID.TID 0000.0001) %MON forcing_qnet_del2            =   8.4462547130505E-01
(PID.TID 0000.0001) %MON forcing_qsw_max              =   0.0000000000000E+00
(PID.TID 0000.0001) %MON forcing_qsw_min              =   0.0000000000000E+00
(PID.TID 0000.0001) %MON forcing_qsw_mean             =   0.0000000000000E+00
(PID.TID 0000.0001) %MON forcing_qsw_sd               =   0.0000000000000E+00
(PID.TID 0000.0001) %MON forcing_qsw_del2             =   0.0000000000000E+00
(PID.TID 0000.0001) %MON forcing_empmr_max            =   6.9012650764459E-05
(PID.TID 0000.0001) %MON forcing_empmr_min            =  -8.3279263662916E-05
(PID.TID 0000.0001) %MON forcing_empmr_mean           =   5.2826568885113E-07
(PID.TID 0000.0001) %MON forcing_empmr_sd             =   2.6215922588960E-05
(PID.TID 0000.0001) %MON forcing_empmr_del2           =   3.6580758715705E-07
(PID.TID 0000.0001) %MON forcing_fu_max               =   3.5669511159261E-01
(PID.TID 0000.0001) %MON forcing_fu_min               =  -3.8948949277401E-01
(PID.TID 0000.0001) %MON forcing_fu_mean              =   2.0329537203455E-02
(PID.TID 0000.0001) %MON forcing_fu_sd                =   1.0185090973368E-01
(PID.TID 0000.0001) %MON forcing_fu_del2              =   8.3925956330839E-04
(PID.TID 0000.0001) %MON forcing_fv_max               =   1.8320434490840E-01
(PID.TID 0000.0001) %MON forcing_fv_min               =  -1.8992391626040E-01
(PID.TID 0000.0001) %MON forcing_fv_mean              =  -7.4930987676715E-03
(PID.TID 0000.0001) %MON forcing_fv_sd                =   4.2258946543451E-02
(PID.TID 0000.0001) %MON forcing_fv_del2              =   4.9790745221961E-04
(PID.TID 0000.0001) %MON trAdv_CFL_u_max              =   4.5441578421204E-02
(PID.TID 0000.0001) %MON trAdv_CFL_v_max              =   2.8040435548963E-02
(PID.TID 0000.0001) %MON trAdv_CFL_w_max              =   3.7173897204063E-02
(PID.TID 0000.0001) %MON advcfl_uvel_max              =   4.3965239792655E-02
(PID.TID 0000.0001) %MON advcfl_vvel_max              =   2.7721316685035E-02
(PID.TID 0000.0001) %MON advcfl_wvel_max              =   4.1829415274321E-02
(PID.TID 0000.0001) %MON advcfl_W_hf_max              =   4.4905107573904E-02
(PID.TID 0000.0001) %MON pe_b_mean                    =   6.2116324291077E-04
(PID.TID 0000.0001) %MON ke_max                       =   1.3370086706670E-02
(PID.TID 0000.0001) %MON ke_mean                      =   1.3044702495452E-04
(PID.TID 0000.0001) %MON ke_vol                       =   1.3226782436723E+18
(PID.TID 0000.0001) %MON vort_r_min                   =  -3.5480437866080E-07
(PID.TID 0000.0001) %MON vort_r_max                   =   3.9866822678712E-07
(PID.TID 0000.0001) %MON vort_a_mean                  =  -2.5274806791162E-05
(PID.TID 0000.0001) %MON vort_a_sd                    =   7.3604680468076E-05
(PID.TID 0000.0001) %MON vort_p_mean                  =  -3.1845655035562E-05
(PID.TID 0000.0001) %MON vort_p_sd                    =   1.3162518080969E-04
(PID.TID 0000.0001) %MON surfExpan_theta_mean         =   1.4174796137559E-07
(PID.TID 0000.0001) %MON surfExpan_salt_mean          =   3.7417745516680E-09
(PID.TID 0000.0001) // =======================================================
(PID.TID 0000.0001) // End MONITOR dynamic field statistics
(PID.TID 0000.0001) // =======================================================
 EXTERNAL_FIELDS_LOAD,        77 : iP,iLd,i0,i1=    3    4    3    4 ; Wght=  0.9333333333  0.0666666667
 EXTERNAL_FIELDS_LOAD: (fu0,1),fu,fv= -2.7199E-02 -3.7252E-02 -2.7869E-02 -2.8873E-03
 EXTERNAL_FIELDS_LOAD: SST,SSS,Q,E-P= -1.6929E-01  3.4578E+01  2.0798E+02  8.9933E-06
DEBUG_STATS_RL:          Uvel (THERMODYNAMICS)  min= -1.23321176273764E-01
DEBUG_STATS_RL:          Uvel (THERMODYNAMICS)  max=  1.43916591794476E-01
DEBUG_STATS_RL:          Uvel (THERMODYNAMICS) mean=  6.30697902001933E-03
DEBUG_STATS_RL:          Uvel (THERMODYNAMICS) S.D.=  2.26767452236816E-02
DEBUG_STATS_RL:          Vvel (THERMODYNAMICS)  min= -7.36103058148491E-02
DEBUG_STATS_RL:          Vvel (THERMODYNAMICS)  max=  1.42684534584901E-01
DEBUG_STATS_RL:          Vvel (THERMODYNAMICS) mean=  8.97080973803183E-04
DEBUG_STATS_RL:          Vvel (THERMODYNAMICS) S.D.=  1.35513399728998E-02
DEBUG_STATS_RL:          Wvel (THERMODYNAMICS)  min= -6.80181547742101E-05
DEBUG_STATS_RL:          Wvel (THERMODYNAMICS)  max=  1.76709914063972E-04
DEBUG_STATS_RL:          Wvel (THERMODYNAMICS) mean= -8.92489429641883E-09
DEBUG_STATS_RL:          Wvel (THERMODYNAMICS) S.D.=  9.55506611960639E-06
DEBUG_STATS_RL:         Theta (THERMODYNAMICS)  min= -1.94701323602088E+00
DEBUG_STATS_RL:         Theta (THERMODYNAMICS)  max=  3.09764476418821E+01
DEBUG_STATS_RL:         Theta (THERMODYNAMICS) mean=  3.23133066919104E+00
DEBUG_STATS_RL:         Theta (THERMODYNAMICS) S.D.=  5.88571451861315E+00
DEBUG_STATS_RL:          Salt (THERMODYNAMICS)  min=  9.99999999999997E-03
DEBUG_STATS_RL:          Salt (THERMODYNAMICS)  max=  3.74738632813231E+01
DEBUG_STATS_RL:          Salt (THERMODYNAMICS) mean=  1.88547639557139E+01
DEBUG_STATS_RL:          Salt (THERMODYNAMICS) S.D.=  1.73003112626696E+01
DEBUG_STATS_RL:         GtNm1 (THERMODYNAMICS)  min= -4.35202692912634E-06
DEBUG_STATS_RL:         GtNm1 (THERMODYNAMICS)  max=  2.24825208459255E-06
DEBUG_STATS_RL:         GtNm1 (THERMODYNAMICS) mean=  1.11760819896137E-09
DEBUG_STATS_RL:         GtNm1 (THERMODYNAMICS) S.D.=  1.47413891667750E-07
DEBUG_STATS_RL:         GsNm1 (THERMODYNAMICS)  min= -4.22567586256038E-07
DEBUG_STATS_RL:         GsNm1 (THERMODYNAMICS)  max=  2.77744875545643E-07
DEBUG_STATS_RL:         GsNm1 (THERMODYNAMICS) mean=  5.25589360220611E-11
DEBUG_STATS_RL:         GsNm1 (THERMODYNAMICS) S.D.=  1.36002166975808E-08
DEBUG_STATS_RL:                EtaN (DYNAMICS)  min= -1.99102773604217E+00
DEBUG_STATS_RL:                EtaN (DYNAMICS)  max=  1.04967756911408E+00
DEBUG_STATS_RL:                EtaN (DYNAMICS) mean= -1.99224732534307E-01
DEBUG_STATS_RL:                EtaN (DYNAMICS) S.D.=  7.91113077429148E-01
DEBUG_STATS_RL:                Uvel (DYNAMICS)  min= -1.23321176273764E-01
DEBUG_STATS_RL:                Uvel (DYNAMICS)  max=  1.43916591794476E-01
DEBUG_STATS_RL:                Uvel (DYNAMICS) mean=  6.30697902001933E-03
DEBUG_STATS_RL:                Uvel (DYNAMICS) S.D.=  2.26767452236816E-02
DEBUG_STATS_RL:                Vvel (DYNAMICS)  min= -7.36103058148491E-02
DEBUG_STATS_RL:                Vvel (DYNAMICS)  max=  1.42684534584901E-01
DEBUG_STATS_RL:                Vvel (DYNAMICS) mean=  8.97080973803183E-04
DEBUG_STATS_RL:                Vvel (DYNAMICS) S.D.=  1.35513399728998E-02
DEBUG_STATS_RL:                Wvel (DYNAMICS)  min= -6.80181547742101E-05
DEBUG_STATS_RL:                Wvel (DYNAMICS)  max=  1.76709914063972E-04
DEBUG_STATS_RL:                Wvel (DYNAMICS) mean= -8.92489429641883E-09
DEBUG_STATS_RL:                Wvel (DYNAMICS) S.D.=  9.55506611960639E-06
DEBUG_STATS_RL:               Theta (DYNAMICS)  min= -1.94701323602088E+00
DEBUG_STATS_RL:               Theta (DYNAMICS)  max=  3.09764476418821E+01
DEBUG_STATS_RL:               Theta (DYNAMICS) mean=  3.23133066919104E+00
DEBUG_STATS_RL:               Theta (DYNAMICS) S.D.=  5.88571451861315E+00
DEBUG_STATS_RL:                Salt (DYNAMICS)  min=  9.99999999999997E-03
DEBUG_STATS_RL:                Salt (DYNAMICS)  max=  3.74738632813231E+01
DEBUG_STATS_RL:                Salt (DYNAMICS) mean=  1.88547639557139E+01
DEBUG_STATS_RL:                Salt (DYNAMICS) S.D.=  1.73003112626696E+01
DEBUG_STATS_RL:                  Gu (DYNAMICS)  min= -1.22607061025588E-01
DEBUG_STATS_RL:                  Gu (DYNAMICS)  max=  1.53118607642500E-01
DEBUG_STATS_RL:                  Gu (DYNAMICS) mean=  6.27095925636128E-03
DEBUG_STATS_RL:                  Gu (DYNAMICS) S.D.=  2.30581555163066E-02
DEBUG_STATS_RL:                  Gv (DYNAMICS)  min= -7.35539295111165E-02
DEBUG_STATS_RL:                  Gv (DYNAMICS)  max=  1.42706275092861E-01
DEBUG_STATS_RL:                  Gv (DYNAMICS) mean=  3.59928857623418E-03
DEBUG_STATS_RL:                  Gv (DYNAMICS) S.D.=  1.50295535357349E-02
DEBUG_STATS_RL:               GuNm1 (DYNAMICS)  min= -1.03875153488554E-05
DEBUG_STATS_RL:               GuNm1 (DYNAMICS)  max=  9.30995759786714E-06
DEBUG_STATS_RL:               GuNm1 (DYNAMICS) mean=  8.64355989004390E-09
DEBUG_STATS_RL:               GuNm1 (DYNAMICS) S.D.=  1.22065506628343E-06
DEBUG_STATS_RL:               GvNm1 (DYNAMICS)  min= -9.80460296913837E-06
DEBUG_STATS_RL:               GvNm1 (DYNAMICS)  max=  1.55765462628285E-05
DEBUG_STATS_RL:               GvNm1 (DYNAMICS) mean=  7.37477069970537E-07
DEBUG_STATS_RL:               GvNm1 (DYNAMICS) S.D.=  2.61972417262478E-06
DEBUG_STATS_RL:               GtNm1 (DYNAMICS)  min= -4.35202692912634E-06
DEBUG_STATS_RL:               GtNm1 (DYNAMICS)  max=  2.24825208459255E-06
DEBUG_STATS_RL:               GtNm1 (DYNAMICS) mean=  1.11760819896137E-09
DEBUG_STATS_RL:               GtNm1 (DYNAMICS) S.D.=  1.47413891667750E-07
DEBUG_STATS_RL:               GsNm1 (DYNAMICS)  min= -4.22567586256038E-07
DEBUG_STATS_RL:               GsNm1 (DYNAMICS)  max=  2.77744875545643E-07
DEBUG_STATS_RL:               GsNm1 (DYNAMICS) mean=  5.25589360220611E-11
DEBUG_STATS_RL:               GsNm1 (DYNAMICS) S.D.=  1.36002166975808E-08
DEBUG_STATS_RL:    cg2d_b (SOLVE_FOR_PRESSURE)  min= -2.39577343455265E+04
DEBUG_STATS_RL:    cg2d_b (SOLVE_FOR_PRESSURE)  max=  2.62644982905162E+04
DEBUG_STATS_RL:    cg2d_b (SOLVE_FOR_PRESSURE) mean=  5.18847534679670E+00
DEBUG_STATS_RL:    cg2d_b (SOLVE_FOR_PRESSURE) S.D.=  3.95067739796920E+03
 cg2d: Sum(rhs),rhsMax =   4.57321525618941E-01  1.72512256896414E+00
(PID.TID 0000.0001)  cg2d: iter=     1 ; resid.=  8.32208293091083E-02
(PID.TID 0000.0001)  cg2d: iter=     2 ; resid.=  4.95923190238749E-02
(PID.TID 0000.0001)  cg2d: iter=     3 ; resid.=  3.73877091289398E-02
(PID.TID 0000.0001)  cg2d: iter=     4 ; resid.=  3.43041581275644E-02
(PID.TID 0000.0001)  cg2d: iter=     5 ; resid.=  2.67459371599722E-02
(PID.TID 0000.0001)  cg2d: iter=     6 ; resid.=  1.95017158665527E-02
(PID.TID 0000.0001)  cg2d: iter=     7 ; resid.=  1.53406783541824E-02
(PID.TID 0000.0001)  cg2d: iter=     8 ; resid.=  1.23863670291488E-02
(PID.TID 0000.0001)  cg2d: iter=     9 ; resid.=  1.09870523892862E-02
(PID.TID 0000.0001)  cg2d: iter=    10 ; resid.=  9.73882433390762E-03
(PID.TID 0000.0001)  cg2d: iter=    11 ; resid.=  8.36617540427071E-03
(PID.TID 0000.0001)  cg2d: iter=    12 ; resid.=  7.30422267234193E-03
(PID.TID 0000.0001)  cg2d: iter=    13 ; resid.=  5.78252324199008E-03
(PID.TID 0000.0001)  cg2d: iter=    14 ; resid.=  4.94658134401297E-03
(PID.TID 0000.0001)  cg2d: iter=    15 ; resid.=  4.34558004285457E-03
(PID.TID 0000.0001)  cg2d: iter=    16 ; resid.=  3.49742662492625E-03
(PID.TID 0000.0001)  cg2d: iter=    17 ; resid.=  2.84793356567599E-03
(PID.TID 0000.0001)  cg2d: iter=    18 ; resid.=  2.44355826240686E-03
(PID.TID 0000.0001)  cg2d: iter=    19 ; resid.=  2.05394862833132E-03
(PID.TID 0000.0001)  cg2d: iter=    20 ; resid.=  1.71572547874857E-03
(PID.TID 0000.0001)  cg2d: iter=    21 ; resid.=  1.39117200000905E-03
(PID.TID 0000.0001)  cg2d: iter=    22 ; resid.=  1.23036678491434E-03
(PID.TID 0000.0001)  cg2d: iter=    23 ; resid.=  1.11006750687261E-03
(PID.TID 0000.0001)  cg2d: iter=    24 ; resid.=  8.73234839629761E-04
(PID.TID 0000.0001)  cg2d: iter=    25 ; resid.=  7.11064651567079E-04
(PID.TID 0000.0001)  cg2d: iter=    26 ; resid.=  5.94925033886644E-04
(PID.TID 0000.0001)  cg2d: iter=    27 ; resid.=  4.96403668746746E-04
(PID.TID 0000.0001)  cg2d: iter=    28 ; resid.=  4.33144052439058E-04
(PID.TID 0000.0001)  cg2d: iter=    29 ; resid.=  3.81554787123730E-04
(PID.TID 0000.0001)  cg2d: iter=    30 ; resid.=  3.37000857566658E-04
(PID.TID 0000.0001)  cg2d: iter=    31 ; resid.=  2.92450099509419E-04
(PID.TID 0000.0001)  cg2d: iter=    32 ; resid.=  2.33539396496630E-04
(PID.TID 0000.0001)  cg2d: iter=    33 ; resid.=  1.95892355564371E-04
(PID.TID 0000.0001)  cg2d: iter=    34 ; resid.=  1.63744860230767E-04
(PID.TID 0000.0001)  cg2d: iter=    35 ; resid.=  1.33898445202908E-04
(PID.TID 0000.0001)  cg2d: iter=    36 ; resid.=  1.10897621869663E-04
(PID.TID 0000.0001)  cg2d: iter=    37 ; resid.=  8.96693988265340E-05
(PID.TID 0000.0001)  cg2d: iter=    38 ; resid.=  7.03023143441406E-05
(PID.TID 0000.0001)  cg2d: iter=    39 ; resid.=  5.48431960415766E-05
(PID.TID 0000.0001)  cg2d: iter=    40 ; resid.=  4.25253683717515E-05
(PID.TID 0000.0001)  cg2d: iter=    41 ; resid.=  3.28722195966197E-05
(PID.TID 0000.0001)  cg2d: iter=    42 ; resid.=  2.79208636073624E-05
(PID.TID 0000.0001)  cg2d: iter=    43 ; resid.=  2.46098842042419E-05
(PID.TID 0000.0001)  cg2d: iter=    44 ; resid.=  2.20658925617866E-05
(PID.TID 0000.0001)  cg2d: iter=    45 ; resid.=  1.87403061199239E-05
(PID.TID 0000.0001)  cg2d: iter=    46 ; resid.=  1.58428402518661E-05
(PID.TID 0000.0001)  cg2d: iter=    47 ; resid.=  1.35189423497204E-05
(PID.TID 0000.0001)  cg2d: iter=    48 ; resid.=  1.25831898378201E-05
(PID.TID 0000.0001)  cg2d: iter=    49 ; resid.=  1.09498754684721E-05
(PID.TID 0000.0001)  cg2d: iter=    50 ; resid.=  8.51890624193976E-06
(PID.TID 0000.0001)  cg2d: iter=    51 ; resid.=  6.63566813274834E-06
(PID.TID 0000.0001)  cg2d: iter=    52 ; resid.=  5.42266672278419E-06
(PID.TID 0000.0001)  cg2d: iter=    53 ; resid.=  4.78386468729728E-06
(PID.TID 0000.0001)  cg2d: iter=    54 ; resid.=  3.96357043306973E-06
(PID.TID 0000.0001)  cg2d: iter=    55 ; resid.=  3.32348411716216E-06
(PID.TID 0000.0001)  cg2d: iter=    56 ; resid.=  2.69550359560388E-06
(PID.TID 0000.0001)  cg2d: iter=    57 ; resid.=  2.37415554592645E-06
(PID.TID 0000.0001)  cg2d: iter=    58 ; resid.=  1.85089040536576E-06
(PID.TID 0000.0001)  cg2d: iter=    59 ; resid.=  1.38692646027615E-06
(PID.TID 0000.0001)  cg2d: iter=    60 ; resid.=  1.04300221480049E-06
(PID.TID 0000.0001)  cg2d: iter=    61 ; resid.=  7.98199828127298E-07
(PID.TID 0000.0001)  cg2d: iter=    62 ; resid.=  6.05801695107150E-07
(PID.TID 0000.0001)  cg2d: iter=    63 ; resid.=  4.76362383680032E-07
(PID.TID 0000.0001)  cg2d: iter=    64 ; resid.=  3.70930586924948E-07
(PID.TID 0000.0001)  cg2d: iter=    65 ; resid.=  2.93095537719316E-07
(PID.TID 0000.0001)  cg2d: iter=    66 ; resid.=  2.31855973325311E-07
(PID.TID 0000.0001)  cg2d: iter=    67 ; resid.=  1.99634991808712E-07
(PID.TID 0000.0001)  cg2d: iter=    68 ; resid.=  1.77596283200012E-07
(PID.TID 0000.0001)  cg2d: iter=    69 ; resid.=  1.57316723983403E-07
(PID.TID 0000.0001)  cg2d: iter=    70 ; resid.=  1.36400300102434E-07
(PID.TID 0000.0001)  cg2d: iter=    71 ; resid.=  1.13649042090344E-07
(PID.TID 0000.0001)  cg2d: iter=    72 ; resid.=  1.00849976781334E-07
(PID.TID 0000.0001)  cg2d: iter=    73 ; resid.=  8.79175472251613E-08
(PID.TID 0000.0001)  cg2d: iter=    74 ; resid.=  7.54360270152290E-08
(PID.TID 0000.0001)  cg2d: iter=    75 ; resid.=  5.67261848574681E-08
(PID.TID 0000.0001)  cg2d: iter=    76 ; resid.=  4.31678921549044E-08
(PID.TID 0000.0001)  cg2d: iter=    77 ; resid.=  3.33381075788850E-08
(PID.TID 0000.0001)  cg2d: iter=    78 ; resid.=  2.54158115338269E-08
(PID.TID 0000.0001)  cg2d: iter=    79 ; resid.=  2.00992854943845E-08
(PID.TID 0000.0001)  cg2d: iter=    80 ; resid.=  1.65488183770061E-08
(PID.TID 0000.0001)  cg2d: iter=    81 ; resid.=  1.39536453974026E-08
(PID.TID 0000.0001)  cg2d: iter=    82 ; resid.=  1.13463943901806E-08
(PID.TID 0000.0001)  cg2d: iter=    83 ; resid.=  9.43534743990118E-09
(PID.TID 0000.0001)  cg2d: iter=    84 ; resid.=  8.21465920029768E-09
(PID.TID 0000.0001)  cg2d: iter=    85 ; resid.=  6.28064824019042E-09
(PID.TID 0000.0001)  cg2d: iter=    86 ; resid.=  4.53706726318574E-09
(PID.TID 0000.0001)  cg2d: iter=    87 ; resid.=  3.67823766670757E-09
(PID.TID 0000.0001)  cg2d: iter=    88 ; resid.=  2.93430006808738E-09
(PID.TID 0000.0001)  cg2d: iter=    89 ; resid.=  2.37570291893151E-09
(PID.TID 0000.0001)  cg2d: iter=    90 ; resid.=  2.16506299003521E-09
(PID.TID 0000.0001)  cg2d: iter=    91 ; resid.=  1.87469114179775E-09
(PID.TID 0000.0001)  cg2d: iter=    92 ; resid.=  1.65558357370938E-09
(PID.TID 0000.0001)  cg2d: iter=    93 ; resid.=  1.28641681047364E-09
(PID.TID 0000.0001)  cg2d: iter=    94 ; resid.=  1.03300364623696E-09
(PID.TID 0000.0001)  cg2d: iter=    95 ; resid.=  8.41553164587121E-10
(PID.TID 0000.0001)  cg2d: iter=    96 ; resid.=  6.52230749658888E-10
(PID.TID 0000.0001)  cg2d: iter=    97 ; resid.=  5.27912208066465E-10
(PID.TID 0000.0001)  cg2d: iter=    98 ; resid.=  4.08295218584608E-10
(PID.TID 0000.0001)  cg2d: iter=    99 ; resid.=  3.06933860256604E-10
(PID.TID 0000.0001)  cg2d: iter=   100 ; resid.=  2.37448400649397E-10
(PID.TID 0000.0001)  cg2d: iter=   101 ; resid.=  1.74877102357807E-10
(PID.TID 0000.0001)  cg2d: iter=   102 ; resid.=  1.28756915053311E-10
(PID.TID 0000.0001)  cg2d: iter=   103 ; resid.=  9.91315924127559E-11
(PID.TID 0000.0001)  cg2d: iter=   104 ; resid.=  7.29672579417850E-11
(PID.TID 0000.0001)  cg2d: iter=   105 ; resid.=  5.61194217800244E-11
(PID.TID 0000.0001)  cg2d: iter=   106 ; resid.=  4.29514273635876E-11
(PID.TID 0000.0001)  cg2d: iter=   107 ; resid.=  2.98097041419618E-11
(PID.TID 0000.0001)  cg2d: iter=   108 ; resid.=  2.40974348314983E-11
(PID.TID 0000.0001)  cg2d: iter=   109 ; resid.=  1.87932899978387E-11
(PID.TID 0000.0001)  cg2d: iter=   110 ; resid.=  1.32133157326367E-11
(PID.TID 0000.0001)  cg2d: iter=   111 ; resid.=  1.02659379053711E-11
(PID.TID 0000.0001)  cg2d: iter=   112 ; resid.=  7.59862277402102E-12
(PID.TID 0000.0001)  cg2d: iter=   113 ; resid.=  5.97251450137325E-12
(PID.TID 0000.0001)  cg2d: iter=   114 ; resid.=  4.81723144556438E-12
(PID.TID 0000.0001)  cg2d: iter=   115 ; resid.=  3.86992405357759E-12
(PID.TID 0000.0001)  cg2d: iter=   116 ; resid.=  2.88223761774400E-12
(PID.TID 0000.0001)  cg2d: iter=   117 ; resid.=  2.12347662713895E-12
(PID.TID 0000.0001)  cg2d: iter=   118 ; resid.=  1.60837113979184E-12
(PID.TID 0000.0001)  cg2d: iter=   119 ; resid.=  1.26392519838041E-12
(PID.TID 0000.0001)  cg2d: iter=   120 ; resid.=  8.75399662770046E-13
(PID.TID 0000.0001)  cg2d: iter=   121 ; resid.=  5.97832551669921E-13
(PID.TID 0000.0001)  cg2d: iter=   122 ; resid.=  4.06202468257048E-13
(PID.TID 0000.0001)  cg2d: iter=   123 ; resid.=  2.75727942507774E-13
(PID.TID 0000.0001)  cg2d: iter=   124 ; resid.=  1.97486147211654E-13
(PID.TID 0000.0001)  cg2d: iter=   125 ; resid.=  1.46368129389853E-13
(PID.TID 0000.0001)  cg2d: iter=   126 ; resid.=  1.15500814747210E-13
(PID.TID 0000.0001)  cg2d: iter=   127 ; resid.=  9.50951753995783E-14
DEBUG_STATS_RL:    cg2d_x (SOLVE_FOR_PRESSURE)  min= -1.95909066090530E+01
DEBUG_STATS_RL:    cg2d_x (SOLVE_FOR_PRESSURE)  max=  1.02888559425179E+01
DEBUG_STATS_RL:    cg2d_x (SOLVE_FOR_PRESSURE) mean= -1.95767469514991E+00
DEBUG_STATS_RL:    cg2d_x (SOLVE_FOR_PRESSURE) S.D.=  7.75333428384660E+00
(PID.TID 0000.0001)      cg2d_init_res =   2.36367512071758E-01
(PID.TID 0000.0001)      cg2d_iters(min,last) =      -1     127
(PID.TID 0000.0001)      cg2d_last_res =   9.50951753995783E-14
(PID.TID 0000.0001) // =======================================================
(PID.TID 0000.0001) // Begin MONITOR dynamic field statistics
(PID.TID 0000.0001) // =======================================================
(PID.TID 0000.0001) %MON time_tsnumber                =                    78
(PID.TID 0000.0001) %MON time_secondsf                =   6.7392000000000E+06
(PID.TID 0000.0001) %MON dynstat_eta_max              =   1.0488130420507E+00
(PID.TID 0000.0001) %MON dynstat_eta_min              =  -1.9970343128495E+00
(PID.TID 0000.0001) %MON dynstat_eta_mean             =  -5.4135306746788E-03
(PID.TID 0000.0001) %MON dynstat_eta_sd               =   6.9554474224699E-01
(PID.TID 0000.0001) %MON dynstat_eta_del2             =   2.4629171840496E-03
(PID.TID 0000.0001) %MON dynstat_uvel_max             =   1.4562683791899E-01
(PID.TID 0000.0001) %MON dynstat_uvel_min             =  -1.2480158290329E-01
(PID.TID 0000.0001) %MON dynstat_uvel_mean            =   2.5021583084061E-03
(PID.TID 0000.0001) %MON dynstat_uvel_sd              =   1.4563686384815E-02
(PID.TID 0000.0001) %MON dynstat_uvel_del2            =   9.0481534456127E-05
(PID.TID 0000.0001) %MON dynstat_vvel_max             =   1.4014020832683E-01
(PID.TID 0000.0001) %MON dynstat_vvel_min             =  -7.5913412101585E-02
(PID.TID 0000.0001) %MON dynstat_vvel_mean            =  -4.1404813165398E-05
(PID.TID 0000.0001) %MON dynstat_vvel_sd              =   8.3420783211057E-03
(PID.TID 0000.0001) %MON dynstat_vvel_del2            =   7.4608567313127E-05
(PID.TID 0000.0001) %MON dynstat_wvel_max             =   1.8372593355889E-04
(PID.TID 0000.0001) %MON dynstat_wvel_min             =  -6.8450575862840E-05
(PID.TID 0000.0001) %MON dynstat_wvel_mean            =   1.2486215716698E-22
(PID.TID 0000.0001) %MON dynstat_wvel_sd              =   1.0716514104282E-05
(PID.TID 0000.0001) %MON dynstat_wvel_del2            =   1.0667549657603E-07
(PID.TID 0000.0001) %MON dynstat_theta_max            =   3.0976447641882E+01
(PID.TID 0000.0001) %MON dynstat_theta_min            =  -1.9470132360209E+00
(PID.TID 0000.0001) %MON dynstat_theta_mean           =   3.6340035686124E+00
(PID.TID 0000.0001) %MON dynstat_theta_sd             =   4.4271653287258E+00
(PID.TID 0000.0001) %MON dynstat_theta_del2           =   4.8516257967498E-03
(PID.TID 0000.0001) %MON dynstat_salt_max             =   3.7473863281323E+01
(PID.TID 0000.0001) %MON dynstat_salt_min             =   2.9915883419619E+01
(PID.TID 0000.0001) %MON dynstat_salt_mean            =   3.4728014008619E+01
(PID.TID 0000.0001) %MON dynstat_salt_sd              =   2.9659119704842E-01
(PID.TID 0000.0001) %MON dynstat_salt_del2            =   9.9211205504080E-04
(PID.TID 0000.0001) %MON dynstat_sst_max              =   3.0976447641882E+01
(PID.TID 0000.0001) %MON dynstat_sst_min              =  -1.9470132360209E+00
(PID.TID 0000.0001) %MON dynstat_sst_mean             =   1.9066730765029E+01
(PID.TID 0000.0001) %MON dynstat_sst_sd               =   9.1636647807981E+00
(PID.TID 0000.0001) %MON dynstat_sst_del2             =   2.8748800597859E-02
(PID.TID 0000.0001) %MON dynstat_sss_max              =   3.7468647948586E+01
(PID.TID 0000.0001) %MON dynstat_sss_min              =   2.9915883419619E+01
(PID.TID 0000.0001) %MON dynstat_sss_mean             =   3.4847905764016E+01
(PID.TID 0000.0001) %MON dynstat_sss_sd               =   9.8614279335147E-01
(PID.TID 0000.0001) %MON dynstat_sss_del2             =   8.1686152003697E-03
(PID.TID 0000.0001) %MON forcing_qnet_max             =   2.6509722086589E+02
(PID.TID 0000.0001) %MON forcing_qnet_min             =  -1.6299959818522E+02
(PID.TID 0000.0001) %MON forcing_qnet_mean            =  -6.4709931322053E+00
(PID.TID 0000.0001) %MON forcing_qnet_sd              =   4.4694693234620E+01
(PID.TID 0000.0001) %MON forcing_qnet_del2            =   8.3727990364500E-01
(PID.TID 0000.0001) %MON forcing_qsw_max              =   0.0000000000000E+00
(PID.TID 0000.0001) %MON forcing_qsw_min              =   0.0000000000000E+00
(PID.TID 0000.0001) %MON forcing_qsw_mean             =   0.0000000000000E+00
(PID.TID 0000.0001) %MON forcing_qsw_sd               =   0.0000000000000E+00
(PID.TID 0000.0001) %MON forcing_qsw_del2             =   0.0000000000000E+00
(PID.TID 0000.0001) %MON forcing_empmr_max            =   6.8916479752564E-05
(PID.TID 0000.0001) %MON forcing_empmr_min            =  -8.3294109742837E-05
(PID.TID 0000.0001) %MON forcing_empmr_mean           =   5.0582032402356E-07
(PID.TID 0000.0001) %MON forcing_empmr_sd             =   2.6146601074219E-05
(PID.TID 0000.0001) %MON forcing_empmr_del2           =   3.6519434745887E-07
(PID.TID 0000.0001) %MON forcing_fu_max               =   3.5583882729212E-01
(PID.TID 0000.0001) %MON forcing_fu_min               =  -3.9042256474495E-01
(PID.TID 0000.0001) %MON forcing_fu_mean              =   2.0202345106522E-02
(PID.TID 0000.0001) %MON forcing_fu_sd                =   1.0159012040920E-01
(PID.TID 0000.0001) %MON forcing_fu_del2              =   8.3058122505654E-04
(PID.TID 0000.0001) %MON forcing_fv_max               =   1.8310834368070E-01
(PID.TID 0000.0001) %MON forcing_fv_min               =  -1.8651620348295E-01
(PID.TID 0000.0001) %MON forcing_fv_mean              =  -7.4566220952985E-03
(PID.TID 0000.0001) %MON forcing_fv_sd                =   4.1854188278217E-02
(PID.TID 0000.0001) %MON forcing_fv_del2              =   4.8859436838041E-04
(PID.TID 0000.0001) %MON trAdv_CFL_u_max              =   4.3974169447301E-02
(PID.TID 0000.0001) %MON trAdv_CFL_v_max              =   2.7608351779462E-02
(PID.TID 0000.0001) %MON trAdv_CFL_w_max              =   3.9148042500326E-02
(PID.TID 0000.0001) %MON advcfl_uvel_max              =   4.2359074413033E-02
(PID.TID 0000.0001) %MON advcfl_vvel_max              =   2.7226994899178E-02
(PID.TID 0000.0001) %MON advcfl_wvel_max              =   4.3490193587638E-02
(PID.TID 0000.0001) %MON advcfl_W_hf_max              =   4.6688001939670E-02
(PID.TID 0000.0001) %MON pe_b_mean                    =   6.1909550662851E-04
(PID.TID 0000.0001) %MON ke_max                       =   1.3208837851597E-02
(PID.TID 0000.0001) %MON ke_mean                      =   1.3044794358428E-04
(PID.TID 0000.0001) %MON ke_vol                       =   1.3226782436723E+18
(PID.TID 0000.0001) %MON vort_r_min                   =  -3.6397984847363E-07
(PID.TID 0000.0001) %MON vort_r_max                   =   3.9747851798319E-07
(PID.TID 0000.0001) %MON vort_a_mean                  =  -2.5274806820071E-05
(PID.TID 0000.0001) %MON vort_a_sd                    =   7.3604680064042E-05
(PID.TID 0000.0001) %MON vort_p_mean                  =  -3.1845655071988E-05
(PID.TID 0000.0001) %MON vort_p_sd                    =   1.3162518669669E-04
(PID.TID 0000.0001) %MON surfExpan_theta_mean         =   8.5185516304655E-08
(PID.TID 0000.0001) %MON surfExpan_salt_mean          =   1.7691841427586E-08
(PID.TID 0000.0001) // =======================================================
(PID.TID 0000.0001) // End MONITOR dynamic field statistics
(PID.TID 0000.0001) // =======================================================
 EXTERNAL_FIELDS_LOAD,        78 : iP,iLd,i0,i1=    3    4    3    4 ; Wght=  0.9000000000  0.1000000000
 EXTERNAL_FIELDS_LOAD: (fu0,1),fu,fv= -2.7199E-02 -3.7252E-02 -2.8204E-02 -4.0419E-03
 EXTERNAL_FIELDS_LOAD: SST,SSS,Q,E-P= -1.6198E-01  3.4578E+01  2.0427E+02  8.9496E-06
DEBUG_STATS_RL:          Uvel (THERMODYNAMICS)  min= -1.24801582903286E-01
DEBUG_STATS_RL:          Uvel (THERMODYNAMICS)  max=  1.45626837918990E-01
DEBUG_STATS_RL:          Uvel (THERMODYNAMICS) mean=  6.31765692730664E-03
DEBUG_STATS_RL:          Uvel (THERMODYNAMICS) S.D.=  2.26417014978096E-02
DEBUG_STATS_RL:          Vvel (THERMODYNAMICS)  min= -7.59134121015846E-02
DEBUG_STATS_RL:          Vvel (THERMODYNAMICS)  max=  1.40140208326828E-01
DEBUG_STATS_RL:          Vvel (THERMODYNAMICS) mean=  9.49352306881293E-04
DEBUG_STATS_RL:          Vvel (THERMODYNAMICS) S.D.=  1.35450715363623E-02
DEBUG_STATS_RL:          Wvel (THERMODYNAMICS)  min= -6.84505758628398E-05
DEBUG_STATS_RL:          Wvel (THERMODYNAMICS)  max=  1.83725933558888E-04
DEBUG_STATS_RL:          Wvel (THERMODYNAMICS) mean= -2.52780486408273E-10
DEBUG_STATS_RL:          Wvel (THERMODYNAMICS) S.D.=  9.53449440183132E-06
DEBUG_STATS_RL:         Theta (THERMODYNAMICS)  min= -1.94595710741695E+00
DEBUG_STATS_RL:         Theta (THERMODYNAMICS)  max=  3.09994547817627E+01
DEBUG_STATS_RL:         Theta (THERMODYNAMICS) mean=  3.23132620102027E+00
DEBUG_STATS_RL:         Theta (THERMODYNAMICS) S.D.=  5.88613154830551E+00
DEBUG_STATS_RL:          Salt (THERMODYNAMICS)  min=  9.99999999999997E-03
DEBUG_STATS_RL:          Salt (THERMODYNAMICS)  max=  3.74734928266127E+01
DEBUG_STATS_RL:          Salt (THERMODYNAMICS) mean=  1.88547692366541E+01
DEBUG_STATS_RL:          Salt (THERMODYNAMICS) S.D.=  1.73003168723468E+01
DEBUG_STATS_RL:         GtNm1 (THERMODYNAMICS)  min= -4.34980657194820E-06
DEBUG_STATS_RL:         GtNm1 (THERMODYNAMICS)  max=  2.25876906197605E-06
DEBUG_STATS_RL:         GtNm1 (THERMODYNAMICS) mean=  8.11408424797653E-10
DEBUG_STATS_RL:         GtNm1 (THERMODYNAMICS) S.D.=  1.47503982605014E-07
DEBUG_STATS_RL:         GsNm1 (THERMODYNAMICS)  min= -4.25310097126370E-07
DEBUG_STATS_RL:         GsNm1 (THERMODYNAMICS)  max=  3.04438779909178E-07
DEBUG_STATS_RL:         GsNm1 (THERMODYNAMICS) mean=  4.85157028320238E-11
DEBUG_STATS_RL:         GsNm1 (THERMODYNAMICS) S.D.=  1.38444674872419E-08
DEBUG_STATS_RL:                EtaN (DYNAMICS)  min= -1.99703431284947E+00
DEBUG_STATS_RL:                EtaN (DYNAMICS)  max=  1.04881304205071E+00
DEBUG_STATS_RL:                EtaN (DYNAMICS) mean= -1.99559092268085E-01
DEBUG_STATS_RL:                EtaN (DYNAMICS) S.D.=  7.90350079902808E-01
DEBUG_STATS_RL:                Uvel (DYNAMICS)  min= -1.24801582903286E-01
DEBUG_STATS_RL:                Uvel (DYNAMICS)  max=  1.45626837918990E-01
DEBUG_STATS_RL:                Uvel (DYNAMICS) mean=  6.31765692730664E-03
DEBUG_STATS_RL:                Uvel (DYNAMICS) S.D.=  2.26417014978096E-02
DEBUG_STATS_RL:                Vvel (DYNAMICS)  min= -7.59134121015846E-02
DEBUG_STATS_RL:                Vvel (DYNAMICS)  max=  1.40140208326828E-01
DEBUG_STATS_RL:                Vvel (DYNAMICS) mean=  9.49352306881293E-04
DEBUG_STATS_RL:                Vvel (DYNAMICS) S.D.=  1.35450715363623E-02
DEBUG_STATS_RL:                Wvel (DYNAMICS)  min= -6.84505758628398E-05
DEBUG_STATS_RL:                Wvel (DYNAMICS)  max=  1.83725933558888E-04
DEBUG_STATS_RL:                Wvel (DYNAMICS) mean= -2.52780486408273E-10
DEBUG_STATS_RL:                Wvel (DYNAMICS) S.D.=  9.53449440183132E-06
DEBUG_STATS_RL:               Theta (DYNAMICS)  min= -1.94595710741695E+00
DEBUG_STATS_RL:               Theta (DYNAMICS)  max=  3.09994547817627E+01
DEBUG_STATS_RL:               Theta (DYNAMICS) mean=  3.23132620102027E+00
DEBUG_STATS_RL:               Theta (DYNAMICS) S.D.=  5.88613154830551E+00
DEBUG_STATS_RL:                Salt (DYNAMICS)  min=  9.99999999999997E-03
DEBUG_STATS_RL:                Salt (DYNAMICS)  max=  3.74734928266127E+01
DEBUG_STATS_RL:                Salt (DYNAMICS) mean=  1.88547692366541E+01
DEBUG_STATS_RL:                Salt (DYNAMICS) S.D.=  1.73003168723468E+01
DEBUG_STATS_RL:                  Gu (DYNAMICS)  min= -1.24056496467182E-01
DEBUG_STATS_RL:                  Gu (DYNAMICS)  max=  1.53852046628278E-01
DEBUG_STATS_RL:                  Gu (DYNAMICS) mean=  6.27928042760670E-03
DEBUG_STATS_RL:                  Gu (DYNAMICS) S.D.=  2.30072914930263E-02
DEBUG_STATS_RL:                  Gv (DYNAMICS)  min= -7.80777134048595E-02
DEBUG_STATS_RL:                  Gv (DYNAMICS)  max=  1.40132096073081E-01
DEBUG_STATS_RL:                  Gv (DYNAMICS) mean=  3.63117274748140E-03
DEBUG_STATS_RL:                  Gv (DYNAMICS) S.D.=  1.50478937334635E-02
DEBUG_STATS_RL:               GuNm1 (DYNAMICS)  min= -1.03809898688756E-05
DEBUG_STATS_RL:               GuNm1 (DYNAMICS)  max=  9.30439678056731E-06
DEBUG_STATS_RL:               GuNm1 (DYNAMICS) mean=  8.83926600661169E-09
DEBUG_STATS_RL:               GuNm1 (DYNAMICS) S.D.=  1.22097527857779E-06
DEBUG_STATS_RL:               GvNm1 (DYNAMICS)  min= -9.74235171579658E-06
DEBUG_STATS_RL:               GvNm1 (DYNAMICS)  max=  1.55630308509850E-05
DEBUG_STATS_RL:               GvNm1 (DYNAMICS) mean=  7.37460236810370E-07
DEBUG_STATS_RL:               GvNm1 (DYNAMICS) S.D.=  2.61806228398633E-06
DEBUG_STATS_RL:               GtNm1 (DYNAMICS)  min= -4.34980657194820E-06
DEBUG_STATS_RL:               GtNm1 (DYNAMICS)  max=  2.25876906197605E-06
DEBUG_STATS_RL:               GtNm1 (DYNAMICS) mean=  8.11408424797653E-10
DEBUG_STATS_RL:               GtNm1 (DYNAMICS) S.D.=  1.47503982605014E-07
DEBUG_STATS_RL:               GsNm1 (DYNAMICS)  min= -4.25310097126370E-07
DEBUG_STATS_RL:               GsNm1 (DYNAMICS)  max=  3.04438779909178E-07
DEBUG_STATS_RL:               GsNm1 (DYNAMICS) mean=  4.85157028320238E-11
DEBUG_STATS_RL:               GsNm1 (DYNAMICS) S.D.=  1.38444674872419E-08
DEBUG_STATS_RL:    cg2d_b (SOLVE_FOR_PRESSURE)  min= -2.46346541036509E+04
DEBUG_STATS_RL:    cg2d_b (SOLVE_FOR_PRESSURE)  max=  2.68121594913184E+04
DEBUG_STATS_RL:    cg2d_b (SOLVE_FOR_PRESSURE) mean=  5.22714913341224E+00
DEBUG_STATS_RL:    cg2d_b (SOLVE_FOR_PRESSURE) S.D.=  3.95488547297661E+03
 cg2d: Sum(rhs),rhsMax =   4.51319493596562E-01  1.76109442295500E+00
(PID.TID 0000.0001)  cg2d: iter=     1 ; resid.=  8.08715205415335E-02
(PID.TID 0000.0001)  cg2d: iter=     2 ; resid.=  4.88714798539960E-02
(PID.TID 0000.0001)  cg2d: iter=     3 ; resid.=  3.78167621344185E-02
(PID.TID 0000.0001)  cg2d: iter=     4 ; resid.=  3.56063565838182E-02
(PID.TID 0000.0001)  cg2d: iter=     5 ; resid.=  2.79593155277748E-02
(PID.TID 0000.0001)  cg2d: iter=     6 ; resid.=  2.05206708946803E-02
(PID.TID 0000.0001)  cg2d: iter=     7 ; resid.=  1.66205043263890E-02
(PID.TID 0000.0001)  cg2d: iter=     8 ; resid.=  1.41499766445494E-02
(PID.TID 0000.0001)  cg2d: iter=     9 ; resid.=  1.28529366667215E-02
(PID.TID 0000.0001)  cg2d: iter=    10 ; resid.=  1.15174180829603E-02
(PID.TID 0000.0001)  cg2d: iter=    11 ; resid.=  9.67816046425038E-03
(PID.TID 0000.0001)  cg2d: iter=    12 ; resid.=  8.29695536360082E-03
(PID.TID 0000.0001)  cg2d: iter=    13 ; resid.=  6.62352945101473E-03
(PID.TID 0000.0001)  cg2d: iter=    14 ; resid.=  5.65978233127262E-03
(PID.TID 0000.0001)  cg2d: iter=    15 ; resid.=  4.91946374171922E-03
(PID.TID 0000.0001)  cg2d: iter=    16 ; resid.=  3.80945415263663E-03
(PID.TID 0000.0001)  cg2d: iter=    17 ; resid.=  3.03714884258742E-03
(PID.TID 0000.0001)  cg2d: iter=    18 ; resid.=  2.57585683818278E-03
(PID.TID 0000.0001)  cg2d: iter=    19 ; resid.=  2.15517486299035E-03
(PID.TID 0000.0001)  cg2d: iter=    20 ; resid.=  1.82710552269554E-03
(PID.TID 0000.0001)  cg2d: iter=    21 ; resid.=  1.47692727720273E-03
(PID.TID 0000.0001)  cg2d: iter=    22 ; resid.=  1.30905507061115E-03
(PID.TID 0000.0001)  cg2d: iter=    23 ; resid.=  1.18856859022441E-03
(PID.TID 0000.0001)  cg2d: iter=    24 ; resid.=  9.43888466097162E-04
(PID.TID 0000.0001)  cg2d: iter=    25 ; resid.=  7.79447119017467E-04
(PID.TID 0000.0001)  cg2d: iter=    26 ; resid.=  6.44011328257205E-04
(PID.TID 0000.0001)  cg2d: iter=    27 ; resid.=  5.37650383502769E-04
(PID.TID 0000.0001)  cg2d: iter=    28 ; resid.=  4.65769367834478E-04
(PID.TID 0000.0001)  cg2d: iter=    29 ; resid.=  4.03944124257650E-04
(PID.TID 0000.0001)  cg2d: iter=    30 ; resid.=  3.47523521787088E-04
(PID.TID 0000.0001)  cg2d: iter=    31 ; resid.=  2.90302245746938E-04
(PID.TID 0000.0001)  cg2d: iter=    32 ; resid.=  2.23973624876440E-04
(PID.TID 0000.0001)  cg2d: iter=    33 ; resid.=  1.81924492344039E-04
(PID.TID 0000.0001)  cg2d: iter=    34 ; resid.=  1.49791045931290E-04
(PID.TID 0000.0001)  cg2d: iter=    35 ; resid.=  1.22309427136722E-04
(PID.TID 0000.0001)  cg2d: iter=    36 ; resid.=  1.02243105305571E-04
(PID.TID 0000.0001)  cg2d: iter=    37 ; resid.=  8.52759739733363E-05
(PID.TID 0000.0001)  cg2d: iter=    38 ; resid.=  6.89161830247255E-05
(PID.TID 0000.0001)  cg2d: iter=    39 ; resid.=  5.53843237494311E-05
(PID.TID 0000.0001)  cg2d: iter=    40 ; resid.=  4.48415146835912E-05
(PID.TID 0000.0001)  cg2d: iter=    41 ; resid.=  3.63687935979617E-05
(PID.TID 0000.0001)  cg2d: iter=    42 ; resid.=  3.19688236388286E-05
(PID.TID 0000.0001)  cg2d: iter=    43 ; resid.=  2.90780793578886E-05
(PID.TID 0000.0001)  cg2d: iter=    44 ; resid.=  2.71151058350056E-05
(PID.TID 0000.0001)  cg2d: iter=    45 ; resid.=  2.33677975438126E-05
(PID.TID 0000.0001)  cg2d: iter=    46 ; resid.=  1.97680396325518E-05
(PID.TID 0000.0001)  cg2d: iter=    47 ; resid.=  1.64933132045608E-05
(PID.TID 0000.0001)  cg2d: iter=    48 ; resid.=  1.49179324732116E-05
(PID.TID 0000.0001)  cg2d: iter=    49 ; resid.=  1.24461941768056E-05
(PID.TID 0000.0001)  cg2d: iter=    50 ; resid.=  9.34739157629931E-06
(PID.TID 0000.0001)  cg2d: iter=    51 ; resid.=  7.14855268677945E-06
(PID.TID 0000.0001)  cg2d: iter=    52 ; resid.=  5.82741113769665E-06
(PID.TID 0000.0001)  cg2d: iter=    53 ; resid.=  5.20205236194958E-06
(PID.TID 0000.0001)  cg2d: iter=    54 ; resid.=  4.34487768134453E-06
(PID.TID 0000.0001)  cg2d: iter=    55 ; resid.=  3.68512172667709E-06
(PID.TID 0000.0001)  cg2d: iter=    56 ; resid.=  3.03988558481358E-06
(PID.TID 0000.0001)  cg2d: iter=    57 ; resid.=  2.72116966792801E-06
(PID.TID 0000.0001)  cg2d: iter=    58 ; resid.=  2.15575259484397E-06
(PID.TID 0000.0001)  cg2d: iter=    59 ; resid.=  1.62128140615085E-06
(PID.TID 0000.0001)  cg2d: iter=    60 ; resid.=  1.25513571711738E-06
(PID.TID 0000.0001)  cg2d: iter=    61 ; resid.=  9.90933306443841E-07
(PID.TID 0000.0001)  cg2d: iter=    62 ; resid.=  7.72244315045622E-07
(PID.TID 0000.0001)  cg2d: iter=    63 ; resid.=  6.07522431589545E-07
(PID.TID 0000.0001)  cg2d: iter=    64 ; resid.=  4.70776067031130E-07
(PID.TID 0000.0001)  cg2d: iter=    65 ; resid.=  3.71115785610071E-07
(PID.TID 0000.0001)  cg2d: iter=    66 ; resid.=  2.89649665846327E-07
(PID.TID 0000.0001)  cg2d: iter=    67 ; resid.=  2.38157066104874E-07
(PID.TID 0000.0001)  cg2d: iter=    68 ; resid.=  1.94493386780377E-07
(PID.TID 0000.0001)  cg2d: iter=    69 ; resid.=  1.58551353250120E-07
(PID.TID 0000.0001)  cg2d: iter=    70 ; resid.=  1.26020708543194E-07
(PID.TID 0000.0001)  cg2d: iter=    71 ; resid.=  9.62182897320372E-08
(PID.TID 0000.0001)  cg2d: iter=    72 ; resid.=  7.92564889692020E-08
(PID.TID 0000.0001)  cg2d: iter=    73 ; resid.=  6.38837806454425E-08
(PID.TID 0000.0001)  cg2d: iter=    74 ; resid.=  5.15450264515595E-08
(PID.TID 0000.0001)  cg2d: iter=    75 ; resid.=  3.76787557937291E-08
(PID.TID 0000.0001)  cg2d: iter=    76 ; resid.=  2.85235083018398E-08
(PID.TID 0000.0001)  cg2d: iter=    77 ; resid.=  2.17491739348192E-08
(PID.TID 0000.0001)  cg2d: iter=    78 ; resid.=  1.65545528778145E-08
(PID.TID 0000.0001)  cg2d: iter=    79 ; resid.=  1.26333169621630E-08
(PID.TID 0000.0001)  cg2d: iter=    80 ; resid.=  1.04875439667761E-08
(PID.TID 0000.0001)  cg2d: iter=    81 ; resid.=  9.05067814422836E-09
(PID.TID 0000.0001)  cg2d: iter=    82 ; resid.=  7.78347769583581E-09
(PID.TID 0000.0001)  cg2d: iter=    83 ; resid.=  6.85410016157347E-09
(PID.TID 0000.0001)  cg2d: iter=    84 ; resid.=  6.49705569328631E-09
(PID.TID 0000.0001)  cg2d: iter=    85 ; resid.=  5.36858675313174E-09
(PID.TID 0000.0001)  cg2d: iter=    86 ; resid.=  4.08934473244150E-09
(PID.TID 0000.0001)  cg2d: iter=    87 ; resid.=  3.41442341546279E-09
(PID.TID 0000.0001)  cg2d: iter=    88 ; resid.=  2.77512633245296E-09
(PID.TID 0000.0001)  cg2d: iter=    89 ; resid.=  2.21873537190860E-09
(PID.TID 0000.0001)  cg2d: iter=    90 ; resid.=  1.92350108313400E-09
(PID.TID 0000.0001)  cg2d: iter=    91 ; resid.=  1.58050438964339E-09
(PID.TID 0000.0001)  cg2d: iter=    92 ; resid.=  1.37232987199040E-09
(PID.TID 0000.0001)  cg2d: iter=    93 ; resid.=  1.02184549466374E-09
(PID.TID 0000.0001)  cg2d: iter=    94 ; resid.=  7.77880715353607E-10
(PID.TID 0000.0001)  cg2d: iter=    95 ; resid.=  6.16677528227946E-10
(PID.TID 0000.0001)  cg2d: iter=    96 ; resid.=  4.74822909936157E-10
(PID.TID 0000.0001)  cg2d: iter=    97 ; resid.=  3.92776399722260E-10
(PID.TID 0000.0001)  cg2d: iter=    98 ; resid.=  3.17034307787588E-10
(PID.TID 0000.0001)  cg2d: iter=    99 ; resid.=  2.55573283117298E-10
(PID.TID 0000.0001)  cg2d: iter=   100 ; resid.=  2.05472032060234E-10
(PID.TID 0000.0001)  cg2d: iter=   101 ; resid.=  1.58492153497781E-10
(PID.TID 0000.0001)  cg2d: iter=   102 ; resid.=  1.26264200105519E-10
(PID.TID 0000.0001)  cg2d: iter=   103 ; resid.=  1.05827135945132E-10
(PID.TID 0000.0001)  cg2d: iter=   104 ; resid.=  8.57116060353302E-11
(PID.TID 0000.0001)  cg2d: iter=   105 ; resid.=  7.34956877555850E-11
(PID.TID 0000.0001)  cg2d: iter=   106 ; resid.=  6.20646380925920E-11
(PID.TID 0000.0001)  cg2d: iter=   107 ; resid.=  4.92183871488518E-11
(PID.TID 0000.0001)  cg2d: iter=   108 ; resid.=  4.55521507621460E-11
(PID.TID 0000.0001)  cg2d: iter=   109 ; resid.=  3.82601168006885E-11
(PID.TID 0000.0001)  cg2d: iter=   110 ; resid.=  2.94726126637223E-11
(PID.TID 0000.0001)  cg2d: iter=   111 ; resid.=  2.48225841771904E-11
(PID.TID 0000.0001)  cg2d: iter=   112 ; resid.=  1.93366888538464E-11
(PID.TID 0000.0001)  cg2d: iter=   113 ; resid.=  1.54100039540132E-11
(PID.TID 0000.0001)  cg2d: iter=   114 ; resid.=  1.19135354302031E-11
(PID.TID 0000.0001)  cg2d: iter=   115 ; resid.=  8.70962949122666E-12
(PID.TID 0000.0001)  cg2d: iter=   116 ; resid.=  6.03654899989150E-12
(PID.TID 0000.0001)  cg2d: iter=   117 ; resid.=  4.28772914411808E-12
(PID.TID 0000.0001)  cg2d: iter=   118 ; resid.=  3.20990418175162E-12
(PID.TID 0000.0001)  cg2d: iter=   119 ; resid.=  2.43575551212231E-12
(PID.TID 0000.0001)  cg2d: iter=   120 ; resid.=  1.66969134187675E-12
(PID.TID 0000.0001)  cg2d: iter=   121 ; resid.=  1.17421509565690E-12
(PID.TID 0000.0001)  cg2d: iter=   122 ; resid.=  8.93827633752328E-13
(PID.TID 0000.0001)  cg2d: iter=   123 ; resid.=  7.22543940179459E-13
(PID.TID 0000.0001)  cg2d: iter=   124 ; resid.=  6.23413664783746E-13
(PID.TID 0000.0001)  cg2d: iter=   125 ; resid.=  5.23841009702469E-13
(PID.TID 0000.0001)  cg2d: iter=   126 ; resid.=  4.23596956476582E-13
(PID.TID 0000.0001)  cg2d: iter=   127 ; resid.=  3.21875365377607E-13
(PID.TID 0000.0001)  cg2d: iter=   128 ; resid.=  2.20038635155448E-13
(PID.TID 0000.0001)  cg2d: iter=   129 ; resid.=  1.41663017685636E-13
(PID.TID 0000.0001)  cg2d: iter=   130 ; resid.=  1.03489131202027E-13
(PID.TID 0000.0001)  cg2d: iter=   131 ; resid.=  8.19122912789479E-14
DEBUG_STATS_RL:    cg2d_x (SOLVE_FOR_PRESSURE)  min= -1.96139667187270E+01
DEBUG_STATS_RL:    cg2d_x (SOLVE_FOR_PRESSURE)  max=  1.02499291463463E+01
DEBUG_STATS_RL:    cg2d_x (SOLVE_FOR_PRESSURE) mean= -1.95861480307671E+00
DEBUG_STATS_RL:    cg2d_x (SOLVE_FOR_PRESSURE) S.D.=  7.73223817365591E+00
(PID.TID 0000.0001)      cg2d_init_res =   2.29057306867607E-01
(PID.TID 0000.0001)      cg2d_iters(min,last) =      -1     131
(PID.TID 0000.0001)      cg2d_last_res =   8.19122912789479E-14
(PID.TID 0000.0001) // =======================================================
(PID.TID 0000.0001) // Begin MONITOR dynamic field statistics
(PID.TID 0000.0001) // =======================================================
(PID.TID 0000.0001) %MON time_tsnumber                =                    79
(PID.TID 0000.0001) %MON time_secondsf                =   6.8256000000000E+06
(PID.TID 0000.0001) %MON dynstat_eta_max              =   1.0448449690465E+00
(PID.TID 0000.0001) %MON dynstat_eta_min              =  -1.9993849866185E+00
(PID.TID 0000.0001) %MON dynstat_eta_mean             =  -5.4538819756204E-03
(PID.TID 0000.0001) %MON dynstat_eta_sd               =   6.9287866630762E-01
(PID.TID 0000.0001) %MON dynstat_eta_del2             =   2.4709913705730E-03
(PID.TID 0000.0001) %MON dynstat_uvel_max             =   1.4857171961026E-01
(PID.TID 0000.0001) %MON dynstat_uvel_min             =  -1.2623647779919E-01
(PID.TID 0000.0001) %MON dynstat_uvel_mean            =   2.5140131654920E-03
(PID.TID 0000.0001) %MON dynstat_uvel_sd              =   1.4559657709441E-02
(PID.TID 0000.0001) %MON dynstat_uvel_del2            =   9.0782512527449E-05
(PID.TID 0000.0001) %MON dynstat_vvel_max             =   1.3730374982589E-01
(PID.TID 0000.0001) %MON dynstat_vvel_min             =  -7.8011961147430E-02
(PID.TID 0000.0001) %MON dynstat_vvel_mean            =  -3.2299523715417E-05
(PID.TID 0000.0001) %MON dynstat_vvel_sd              =   8.3284907674468E-03
(PID.TID 0000.0001) %MON dynstat_vvel_del2            =   7.4670457971502E-05
(PID.TID 0000.0001) %MON dynstat_wvel_max             =   1.8867438094630E-04
(PID.TID 0000.0001) %MON dynstat_wvel_min             =  -6.8836693871421E-05
(PID.TID 0000.0001) %MON dynstat_wvel_mean            =   9.2120416529950E-23
(PID.TID 0000.0001) %MON dynstat_wvel_sd              =   1.0662939339196E-05
(PID.TID 0000.0001) %MON dynstat_wvel_del2            =   1.0637669397730E-07
(PID.TID 0000.0001) %MON dynstat_theta_max            =   3.0999454781763E+01
(PID.TID 0000.0001) %MON dynstat_theta_min            =  -1.9459571074170E+00
(PID.TID 0000.0001) %MON dynstat_theta_mean           =   3.6340356629808E+00
(PID.TID 0000.0001) %MON dynstat_theta_sd             =   4.4273400707264E+00
(PID.TID 0000.0001) %MON dynstat_theta_del2           =   4.8495509231782E-03
(PID.TID 0000.0001) %MON dynstat_salt_max             =   3.7473492826613E+01
(PID.TID 0000.0001) %MON dynstat_salt_min             =   2.9918142418664E+01
(PID.TID 0000.0001) %MON dynstat_salt_mean            =   3.4728014052409E+01
(PID.TID 0000.0001) %MON dynstat_salt_sd              =   2.9659797125717E-01
(PID.TID 0000.0001) %MON dynstat_salt_del2            =   9.9268487255601E-04
(PID.TID 0000.0001) %MON dynstat_sst_max              =   3.0999454781763E+01
(PID.TID 0000.0001) %MON dynstat_sst_min              =  -1.9459571074170E+00
(PID.TID 0000.0001) %MON dynstat_sst_mean             =   1.9067792867972E+01
(PID.TID 0000.0001) %MON dynstat_sst_sd               =   9.1711611434065E+00
(PID.TID 0000.0001) %MON dynstat_sst_del2             =   2.8804401616422E-02
(PID.TID 0000.0001) %MON dynstat_sss_max              =   3.7469250145826E+01
(PID.TID 0000.0001) %MON dynstat_sss_min              =   2.9918142418664E+01
(PID.TID 0000.0001) %MON dynstat_sss_mean             =   3.4847907771602E+01
(PID.TID 0000.0001) %MON dynstat_sss_sd               =   9.8648616620745E-01
(PID.TID 0000.0001) %MON dynstat_sss_del2             =   8.1809010491583E-03
(PID.TID 0000.0001) %MON forcing_qnet_max             =   2.6039198608398E+02
(PID.TID 0000.0001) %MON forcing_qnet_min             =  -1.6257160186768E+02
(PID.TID 0000.0001) %MON forcing_qnet_mean            =  -6.0739567032357E+00
(PID.TID 0000.0001) %MON forcing_qnet_sd              =   4.3878157361251E+01
(PID.TID 0000.0001) %MON forcing_qnet_del2            =   8.3036174391227E-01
(PID.TID 0000.0001) %MON forcing_qsw_max              =   0.0000000000000E+00
(PID.TID 0000.0001) %MON forcing_qsw_min              =   0.0000000000000E+00
(PID.TID 0000.0001) %MON forcing_qsw_mean             =   0.0000000000000E+00
(PID.TID 0000.0001) %MON forcing_qsw_sd               =   0.0000000000000E+00
(PID.TID 0000.0001) %MON forcing_qsw_del2             =   0.0000000000000E+00
(PID.TID 0000.0001) %MON forcing_empmr_max            =   6.8820308740669E-05
(PID.TID 0000.0001) %MON forcing_empmr_min            =  -8.3308955822758E-05
(PID.TID 0000.0001) %MON forcing_empmr_mean           =   4.8337495919599E-07
(PID.TID 0000.0001) %MON forcing_empmr_sd             =   2.6080704866784E-05
(PID.TID 0000.0001) %MON forcing_empmr_del2           =   3.6465436122131E-07
(PID.TID 0000.0001) %MON forcing_fu_max               =   3.5498254299164E-01
(PID.TID 0000.0001) %MON forcing_fu_min               =  -3.9135563671589E-01
(PID.TID 0000.0001) %MON forcing_fu_mean              =   2.0075153009589E-02
(PID.TID 0000.0001) %MON forcing_fu_sd                =   1.0135250681503E-01
(PID.TID 0000.0001) %MON forcing_fu_del2              =   8.2249085228600E-04
(PID.TID 0000.0001) %MON forcing_fv_max               =   1.8301234245300E-01
(PID.TID 0000.0001) %MON forcing_fv_min               =  -1.8310849070549E-01
(PID.TID 0000.0001) %MON forcing_fv_mean              =  -7.4201454229255E-03
(PID.TID 0000.0001) %MON forcing_fv_sd                =   4.1471021405543E-02
(PID.TID 0000.0001) %MON forcing_fv_del2              =   4.7971991302382E-04
(PID.TID 0000.0001) %MON trAdv_CFL_u_max              =   4.2367677844003E-02
(PID.TID 0000.0001) %MON trAdv_CFL_v_max              =   2.7116044364513E-02
(PID.TID 0000.0001) %MON trAdv_CFL_w_max              =   4.0702360665354E-02
(PID.TID 0000.0001) %MON advcfl_uvel_max              =   4.0921874005603E-02
(PID.TID 0000.0001) %MON advcfl_vvel_max              =   2.6675916503771E-02
(PID.TID 0000.0001) %MON advcfl_wvel_max              =   4.4661552092494E-02
(PID.TID 0000.0001) %MON advcfl_W_hf_max              =   4.7945489746353E-02
(PID.TID 0000.0001) %MON pe_b_mean                    =   6.1435937034073E-04
(PID.TID 0000.0001) %MON ke_max                       =   1.3010460161400E-02
(PID.TID 0000.0001) %MON ke_mean                      =   1.3031966320692E-04
(PID.TID 0000.0001) %MON ke_vol                       =   1.3226782436723E+18
(PID.TID 0000.0001) %MON vort_r_min                   =  -3.7120221774556E-07
(PID.TID 0000.0001) %MON vort_r_max                   =   3.9617570447832E-07
(PID.TID 0000.0001) %MON vort_a_mean                  =  -2.5274806854087E-05
(PID.TID 0000.0001) %MON vort_a_sd                    =   7.3604679241684E-05
(PID.TID 0000.0001) %MON vort_p_mean                  =  -3.1845655114847E-05
(PID.TID 0000.0001) %MON vort_p_sd                    =   1.3162518224035E-04
(PID.TID 0000.0001) %MON surfExpan_theta_mean         =   2.9852301367616E-08
(PID.TID 0000.0001) %MON surfExpan_salt_mean          =   3.1176177737459E-08
(PID.TID 0000.0001) // =======================================================
(PID.TID 0000.0001) // End MONITOR dynamic field statistics
(PID.TID 0000.0001) // =======================================================
 EXTERNAL_FIELDS_LOAD,        79 : iP,iLd,i0,i1=    3    4    3    4 ; Wght=  0.8666666667  0.1333333333
 EXTERNAL_FIELDS_LOAD: (fu0,1),fu,fv= -2.7199E-02 -3.7252E-02 -2.8539E-02 -5.1965E-03
 EXTERNAL_FIELDS_LOAD: SST,SSS,Q,E-P= -1.5467E-01  3.4578E+01  2.0056E+02  8.9059E-06
DEBUG_STATS_RL:          Uvel (THERMODYNAMICS)  min= -1.26236477799187E-01
DEBUG_STATS_RL:          Uvel (THERMODYNAMICS)  max=  1.48571719610263E-01
DEBUG_STATS_RL:          Uvel (THERMODYNAMICS) mean=  6.31949357978933E-03
DEBUG_STATS_RL:          Uvel (THERMODYNAMICS) S.D.=  2.25941888525613E-02
DEBUG_STATS_RL:          Vvel (THERMODYNAMICS)  min= -7.80119611474299E-02
DEBUG_STATS_RL:          Vvel (THERMODYNAMICS)  max=  1.37303749825891E-01
DEBUG_STATS_RL:          Vvel (THERMODYNAMICS) mean=  9.93409430845934E-04
DEBUG_STATS_RL:          Vvel (THERMODYNAMICS) S.D.=  1.35277390709580E-02
DEBUG_STATS_RL:          Wvel (THERMODYNAMICS)  min= -6.88366938714208E-05
DEBUG_STATS_RL:          Wvel (THERMODYNAMICS)  max=  1.88674380946298E-04
DEBUG_STATS_RL:          Wvel (THERMODYNAMICS) mean=  5.97918674851593E-09
DEBUG_STATS_RL:          Wvel (THERMODYNAMICS) S.D.=  9.49666108433815E-06
DEBUG_STATS_RL:         Theta (THERMODYNAMICS)  min= -1.94487218893197E+00
DEBUG_STATS_RL:         Theta (THERMODYNAMICS)  max=  3.10220207473884E+01
DEBUG_STATS_RL:         Theta (THERMODYNAMICS) mean=  3.23130569192713E+00
DEBUG_STATS_RL:         Theta (THERMODYNAMICS) S.D.=  5.88652370746822E+00
DEBUG_STATS_RL:          Salt (THERMODYNAMICS)  min=  9.99999999999997E-03
DEBUG_STATS_RL:          Salt (THERMODYNAMICS)  max=  3.74731508188051E+01
DEBUG_STATS_RL:          Salt (THERMODYNAMICS) mean=  1.88547736206926E+01
DEBUG_STATS_RL:          Salt (THERMODYNAMICS) S.D.=  1.73003216651587E+01
DEBUG_STATS_RL:         GtNm1 (THERMODYNAMICS)  min= -4.19355823858453E-06
DEBUG_STATS_RL:         GtNm1 (THERMODYNAMICS)  max=  2.56164109192316E-06
DEBUG_STATS_RL:         GtNm1 (THERMODYNAMICS) mean=  4.84709975974021E-10
DEBUG_STATS_RL:         GtNm1 (THERMODYNAMICS) S.D.=  1.48064577290307E-07
DEBUG_STATS_RL:         GsNm1 (THERMODYNAMICS)  min= -5.75569322303521E-07
DEBUG_STATS_RL:         GsNm1 (THERMODYNAMICS)  max=  4.38033206634276E-07
DEBUG_STATS_RL:         GsNm1 (THERMODYNAMICS) mean=  3.19227850555217E-11
DEBUG_STATS_RL:         GsNm1 (THERMODYNAMICS) S.D.=  1.44516959775283E-08
DEBUG_STATS_RL:                EtaN (DYNAMICS)  min= -1.99938498661848E+00
DEBUG_STATS_RL:                EtaN (DYNAMICS)  max=  1.04484496904653E+00
DEBUG_STATS_RL:                EtaN (DYNAMICS) mean= -1.99654923861034E-01
DEBUG_STATS_RL:                EtaN (DYNAMICS) S.D.=  7.88199609954732E-01
DEBUG_STATS_RL:                Uvel (DYNAMICS)  min= -1.26236477799187E-01
DEBUG_STATS_RL:                Uvel (DYNAMICS)  max=  1.48571719610263E-01
DEBUG_STATS_RL:                Uvel (DYNAMICS) mean=  6.31949357978933E-03
DEBUG_STATS_RL:                Uvel (DYNAMICS) S.D.=  2.25941888525613E-02
DEBUG_STATS_RL:                Vvel (DYNAMICS)  min= -7.80119611474299E-02
DEBUG_STATS_RL:                Vvel (DYNAMICS)  max=  1.37303749825891E-01
DEBUG_STATS_RL:                Vvel (DYNAMICS) mean=  9.93409430845934E-04
DEBUG_STATS_RL:                Vvel (DYNAMICS) S.D.=  1.35277390709580E-02
DEBUG_STATS_RL:                Wvel (DYNAMICS)  min= -6.88366938714208E-05
DEBUG_STATS_RL:                Wvel (DYNAMICS)  max=  1.88674380946298E-04
DEBUG_STATS_RL:                Wvel (DYNAMICS) mean=  5.97918674851593E-09
DEBUG_STATS_RL:                Wvel (DYNAMICS) S.D.=  9.49666108433815E-06
DEBUG_STATS_RL:               Theta (DYNAMICS)  min= -1.94487218893197E+00
DEBUG_STATS_RL:               Theta (DYNAMICS)  max=  3.10220207473884E+01
DEBUG_STATS_RL:               Theta (DYNAMICS) mean=  3.23130569192713E+00
DEBUG_STATS_RL:               Theta (DYNAMICS) S.D.=  5.88652370746822E+00
DEBUG_STATS_RL:                Salt (DYNAMICS)  min=  9.99999999999997E-03
DEBUG_STATS_RL:                Salt (DYNAMICS)  max=  3.74731508188051E+01
DEBUG_STATS_RL:                Salt (DYNAMICS) mean=  1.88547736206926E+01
DEBUG_STATS_RL:                Salt (DYNAMICS) S.D.=  1.73003216651587E+01
DEBUG_STATS_RL:                  Gu (DYNAMICS)  min= -1.25461753998627E-01
DEBUG_STATS_RL:                  Gu (DYNAMICS)  max=  1.56672531628571E-01
DEBUG_STATS_RL:                  Gu (DYNAMICS) mean=  6.27853571600925E-03
DEBUG_STATS_RL:                  Gu (DYNAMICS) S.D.=  2.29464490304807E-02
DEBUG_STATS_RL:                  Gv (DYNAMICS)  min= -8.20409101593271E-02
DEBUG_STATS_RL:                  Gv (DYNAMICS)  max=  1.37269207668347E-01
DEBUG_STATS_RL:                  Gv (DYNAMICS) mean=  3.65407260350778E-03
DEBUG_STATS_RL:                  Gv (DYNAMICS) S.D.=  1.50504299413282E-02
DEBUG_STATS_RL:               GuNm1 (DYNAMICS)  min= -1.03653754847934E-05
DEBUG_STATS_RL:               GuNm1 (DYNAMICS)  max=  9.29612482368104E-06
DEBUG_STATS_RL:               GuNm1 (DYNAMICS) mean=  9.09110006900070E-09
DEBUG_STATS_RL:               GuNm1 (DYNAMICS) S.D.=  1.22136590958953E-06
DEBUG_STATS_RL:               GvNm1 (DYNAMICS)  min= -9.68051688912226E-06
DEBUG_STATS_RL:               GvNm1 (DYNAMICS)  max=  1.55463807735452E-05
DEBUG_STATS_RL:               GvNm1 (DYNAMICS) mean=  7.37447504336823E-07
DEBUG_STATS_RL:               GvNm1 (DYNAMICS) S.D.=  2.61653094066175E-06
DEBUG_STATS_RL:               GtNm1 (DYNAMICS)  min= -4.19355823858453E-06
DEBUG_STATS_RL:               GtNm1 (DYNAMICS)  max=  2.56164109192316E-06
DEBUG_STATS_RL:               GtNm1 (DYNAMICS) mean=  4.84709975974021E-10
DEBUG_STATS_RL:               GtNm1 (DYNAMICS) S.D.=  1.48064577290307E-07
DEBUG_STATS_RL:               GsNm1 (DYNAMICS)  min= -5.75569322303521E-07
DEBUG_STATS_RL:               GsNm1 (DYNAMICS)  max=  4.38033206634276E-07
DEBUG_STATS_RL:               GsNm1 (DYNAMICS) mean=  3.19227850555217E-11
DEBUG_STATS_RL:               GsNm1 (DYNAMICS) S.D.=  1.44516959775283E-08
DEBUG_STATS_RL:    cg2d_b (SOLVE_FOR_PRESSURE)  min= -2.52867421008101E+04
DEBUG_STATS_RL:    cg2d_b (SOLVE_FOR_PRESSURE)  max=  2.73293227080808E+04
DEBUG_STATS_RL:    cg2d_b (SOLVE_FOR_PRESSURE) mean=  5.26402711485888E+00
DEBUG_STATS_RL:    cg2d_b (SOLVE_FOR_PRESSURE) S.D.=  3.95912987387146E+03
 cg2d: Sum(rhs),rhsMax =   4.45902845857790E-01  1.79506308769805E+00
(PID.TID 0000.0001)  cg2d: iter=     1 ; resid.=  7.90671454845260E-02
(PID.TID 0000.0001)  cg2d: iter=     2 ; resid.=  4.93721166575352E-02
(PID.TID 0000.0001)  cg2d: iter=     3 ; resid.=  4.01413415388287E-02
(PID.TID 0000.0001)  cg2d: iter=     4 ; resid.=  3.90987599141178E-02
(PID.TID 0000.0001)  cg2d: iter=     5 ; resid.=  3.12674300741325E-02
(PID.TID 0000.0001)  cg2d: iter=     6 ; resid.=  2.37036839646555E-02
(PID.TID 0000.0001)  cg2d: iter=     7 ; resid.=  2.03230244663982E-02
(PID.TID 0000.0001)  cg2d: iter=     8 ; resid.=  1.82119479490182E-02
(PID.TID 0000.0001)  cg2d: iter=     9 ; resid.=  1.63710671314564E-02
(PID.TID 0000.0001)  cg2d: iter=    10 ; resid.=  1.42449700702805E-02
(PID.TID 0000.0001)  cg2d: iter=    11 ; resid.=  1.14880941087305E-02
(PID.TID 0000.0001)  cg2d: iter=    12 ; resid.=  9.61232037811630E-03
(PID.TID 0000.0001)  cg2d: iter=    13 ; resid.=  7.68838000661664E-03
(PID.TID 0000.0001)  cg2d: iter=    14 ; resid.=  6.43823346421106E-03
(PID.TID 0000.0001)  cg2d: iter=    15 ; resid.=  5.43741481703077E-03
(PID.TID 0000.0001)  cg2d: iter=    16 ; resid.=  4.09715563460779E-03
(PID.TID 0000.0001)  cg2d: iter=    17 ; resid.=  3.30799446527977E-03
(PID.TID 0000.0001)  cg2d: iter=    18 ; resid.=  2.87072610827123E-03
(PID.TID 0000.0001)  cg2d: iter=    19 ; resid.=  2.41017549315602E-03
(PID.TID 0000.0001)  cg2d: iter=    20 ; resid.=  2.07024028925728E-03
(PID.TID 0000.0001)  cg2d: iter=    21 ; resid.=  1.69044824148309E-03
(PID.TID 0000.0001)  cg2d: iter=    22 ; resid.=  1.52566094411490E-03
(PID.TID 0000.0001)  cg2d: iter=    23 ; resid.=  1.39041131141325E-03
(PID.TID 0000.0001)  cg2d: iter=    24 ; resid.=  1.09457989820853E-03
(PID.TID 0000.0001)  cg2d: iter=    25 ; resid.=  8.96900642653436E-04
(PID.TID 0000.0001)  cg2d: iter=    26 ; resid.=  7.17208719136479E-04
(PID.TID 0000.0001)  cg2d: iter=    27 ; resid.=  5.92083782030958E-04
(PID.TID 0000.0001)  cg2d: iter=    28 ; resid.=  5.07922781202223E-04
(PID.TID 0000.0001)  cg2d: iter=    29 ; resid.=  4.32965092849018E-04
(PID.TID 0000.0001)  cg2d: iter=    30 ; resid.=  3.59973875866976E-04
(PID.TID 0000.0001)  cg2d: iter=    31 ; resid.=  2.87669236737492E-04
(PID.TID 0000.0001)  cg2d: iter=    32 ; resid.=  2.16126745566966E-04
(PID.TID 0000.0001)  cg2d: iter=    33 ; resid.=  1.72413223726800E-04
(PID.TID 0000.0001)  cg2d: iter=    34 ; resid.=  1.41697152454189E-04
(PID.TID 0000.0001)  cg2d: iter=    35 ; resid.=  1.16418069406376E-04
(PID.TID 0000.0001)  cg2d: iter=    36 ; resid.=  9.78332602324783E-05
(PID.TID 0000.0001)  cg2d: iter=    37 ; resid.=  8.35034400196035E-05
(PID.TID 0000.0001)  cg2d: iter=    38 ; resid.=  6.93988232732772E-05
(PID.TID 0000.0001)  cg2d: iter=    39 ; resid.=  5.73667687097274E-05
(PID.TID 0000.0001)  cg2d: iter=    40 ; resid.=  4.79428324295753E-05
(PID.TID 0000.0001)  cg2d: iter=    41 ; resid.=  3.95062241545606E-05
(PID.TID 0000.0001)  cg2d: iter=    42 ; resid.=  3.43339811020092E-05
(PID.TID 0000.0001)  cg2d: iter=    43 ; resid.=  3.09148611420221E-05
(PID.TID 0000.0001)  cg2d: iter=    44 ; resid.=  2.87667814731587E-05
(PID.TID 0000.0001)  cg2d: iter=    45 ; resid.=  2.45522620598652E-05
(PID.TID 0000.0001)  cg2d: iter=    46 ; resid.=  2.02904752758292E-05
(PID.TID 0000.0001)  cg2d: iter=    47 ; resid.=  1.62092300888039E-05
(PID.TID 0000.0001)  cg2d: iter=    48 ; resid.=  1.43041713109921E-05
(PID.TID 0000.0001)  cg2d: iter=    49 ; resid.=  1.18737770556216E-05
(PID.TID 0000.0001)  cg2d: iter=    50 ; resid.=  9.09813374282306E-06
(PID.TID 0000.0001)  cg2d: iter=    51 ; resid.=  7.17604322636952E-06
(PID.TID 0000.0001)  cg2d: iter=    52 ; resid.=  6.07593942414617E-06
(PID.TID 0000.0001)  cg2d: iter=    53 ; resid.=  5.64244131926012E-06
(PID.TID 0000.0001)  cg2d: iter=    54 ; resid.=  4.85954894704050E-06
(PID.TID 0000.0001)  cg2d: iter=    55 ; resid.=  4.27112509165345E-06
(PID.TID 0000.0001)  cg2d: iter=    56 ; resid.=  3.59640550909093E-06
(PID.TID 0000.0001)  cg2d: iter=    57 ; resid.=  3.17472256207783E-06
(PID.TID 0000.0001)  cg2d: iter=    58 ; resid.=  2.47227255586437E-06
(PID.TID 0000.0001)  cg2d: iter=    59 ; resid.=  1.81852589874700E-06
(PID.TID 0000.0001)  cg2d: iter=    60 ; resid.=  1.42958548124320E-06
(PID.TID 0000.0001)  cg2d: iter=    61 ; resid.=  1.14482374490403E-06
(PID.TID 0000.0001)  cg2d: iter=    62 ; resid.=  8.92455795901568E-07
(PID.TID 0000.0001)  cg2d: iter=    63 ; resid.=  6.85834254320944E-07
(PID.TID 0000.0001)  cg2d: iter=    64 ; resid.=  5.23418451090291E-07
(PID.TID 0000.0001)  cg2d: iter=    65 ; resid.=  4.19323108102964E-07
(PID.TID 0000.0001)  cg2d: iter=    66 ; resid.=  3.32456646287856E-07
(PID.TID 0000.0001)  cg2d: iter=    67 ; resid.=  2.73078585202604E-07
(PID.TID 0000.0001)  cg2d: iter=    68 ; resid.=  2.23172169683154E-07
(PID.TID 0000.0001)  cg2d: iter=    69 ; resid.=  1.88232849951932E-07
(PID.TID 0000.0001)  cg2d: iter=    70 ; resid.=  1.57406980485194E-07
(PID.TID 0000.0001)  cg2d: iter=    71 ; resid.=  1.26981386998831E-07
(PID.TID 0000.0001)  cg2d: iter=    72 ; resid.=  1.11723674107889E-07
(PID.TID 0000.0001)  cg2d: iter=    73 ; resid.=  9.42658451621532E-08
(PID.TID 0000.0001)  cg2d: iter=    74 ; resid.=  7.97840186436502E-08
(PID.TID 0000.0001)  cg2d: iter=    75 ; resid.=  6.47980830037224E-08
(PID.TID 0000.0001)  cg2d: iter=    76 ; resid.=  5.49155134670721E-08
(PID.TID 0000.0001)  cg2d: iter=    77 ; resid.=  4.63197919137311E-08
(PID.TID 0000.0001)  cg2d: iter=    78 ; resid.=  3.90793782795416E-08
(PID.TID 0000.0001)  cg2d: iter=    79 ; resid.=  3.26141490095615E-08
(PID.TID 0000.0001)  cg2d: iter=    80 ; resid.=  2.86470961995560E-08
(PID.TID 0000.0001)  cg2d: iter=    81 ; resid.=  2.41678283726984E-08
(PID.TID 0000.0001)  cg2d: iter=    82 ; resid.=  1.88890341948436E-08
(PID.TID 0000.0001)  cg2d: iter=    83 ; resid.=  1.49911769562847E-08
(PID.TID 0000.0001)  cg2d: iter=    84 ; resid.=  1.23514608936731E-08
(PID.TID 0000.0001)  cg2d: iter=    85 ; resid.=  8.89052702048504E-09
(PID.TID 0000.0001)  cg2d: iter=    86 ; resid.=  6.20749476476167E-09
(PID.TID 0000.0001)  cg2d: iter=    87 ; resid.=  4.79075734078517E-09
(PID.TID 0000.0001)  cg2d: iter=    88 ; resid.=  3.69263695801691E-09
(PID.TID 0000.0001)  cg2d: iter=    89 ; resid.=  2.82854524888195E-09
(PID.TID 0000.0001)  cg2d: iter=    90 ; resid.=  2.33782952095237E-09
(PID.TID 0000.0001)  cg2d: iter=    91 ; resid.=  1.83202242676139E-09
(PID.TID 0000.0001)  cg2d: iter=    92 ; resid.=  1.53780874674274E-09
(PID.TID 0000.0001)  cg2d: iter=    93 ; resid.=  1.09049007627255E-09
(PID.TID 0000.0001)  cg2d: iter=    94 ; resid.=  7.95059091066311E-10
(PID.TID 0000.0001)  cg2d: iter=    95 ; resid.=  6.15933412621003E-10
(PID.TID 0000.0001)  cg2d: iter=    96 ; resid.=  4.58597774269829E-10
(PID.TID 0000.0001)  cg2d: iter=    97 ; resid.=  3.62448952697287E-10
(PID.TID 0000.0001)  cg2d: iter=    98 ; resid.=  2.78478948874736E-10
(PID.TID 0000.0001)  cg2d: iter=    99 ; resid.=  2.21674003863612E-10
(PID.TID 0000.0001)  cg2d: iter=   100 ; resid.=  1.71601659947693E-10
(PID.TID 0000.0001)  cg2d: iter=   101 ; resid.=  1.24874234654441E-10
(PID.TID 0000.0001)  cg2d: iter=   102 ; resid.=  9.22766779236299E-11
(PID.TID 0000.0001)  cg2d: iter=   103 ; resid.=  6.91469828972220E-11
(PID.TID 0000.0001)  cg2d: iter=   104 ; resid.=  5.07974550987062E-11
(PID.TID 0000.0001)  cg2d: iter=   105 ; resid.=  3.96120096267606E-11
(PID.TID 0000.0001)  cg2d: iter=   106 ; resid.=  3.05890991212097E-11
(PID.TID 0000.0001)  cg2d: iter=   107 ; resid.=  2.15468801390495E-11
(PID.TID 0000.0001)  cg2d: iter=   108 ; resid.=  1.76078639195370E-11
(PID.TID 0000.0001)  cg2d: iter=   109 ; resid.=  1.42473780771397E-11
(PID.TID 0000.0001)  cg2d: iter=   110 ; resid.=  1.08024468952294E-11
(PID.TID 0000.0001)  cg2d: iter=   111 ; resid.=  9.34770262845408E-12
(PID.TID 0000.0001)  cg2d: iter=   112 ; resid.=  8.01695075749190E-12
(PID.TID 0000.0001)  cg2d: iter=   113 ; resid.=  7.00595244866755E-12
(PID.TID 0000.0001)  cg2d: iter=   114 ; resid.=  6.22642518308316E-12
(PID.TID 0000.0001)  cg2d: iter=   115 ; resid.=  5.23961982142359E-12
(PID.TID 0000.0001)  cg2d: iter=   116 ; resid.=  4.13429112238925E-12
(PID.TID 0000.0001)  cg2d: iter=   117 ; resid.=  3.25911751441772E-12
(PID.TID 0000.0001)  cg2d: iter=   118 ; resid.=  2.62302913746673E-12
(PID.TID 0000.0001)  cg2d: iter=   119 ; resid.=  2.08700505316168E-12
(PID.TID 0000.0001)  cg2d: iter=   120 ; resid.=  1.51251849657525E-12
(PID.TID 0000.0001)  cg2d: iter=   121 ; resid.=  1.09566642341825E-12
(PID.TID 0000.0001)  cg2d: iter=   122 ; resid.=  8.75068729190183E-13
(PID.TID 0000.0001)  cg2d: iter=   123 ; resid.=  7.27541617308175E-13
(PID.TID 0000.0001)  cg2d: iter=   124 ; resid.=  6.21038036086583E-13
(PID.TID 0000.0001)  cg2d: iter=   125 ; resid.=  5.08447781584984E-13
(PID.TID 0000.0001)  cg2d: iter=   126 ; resid.=  4.00404409148456E-13
(PID.TID 0000.0001)  cg2d: iter=   127 ; resid.=  2.96786631218407E-13
(PID.TID 0000.0001)  cg2d: iter=   128 ; resid.=  1.98838237455265E-13
(PID.TID 0000.0001)  cg2d: iter=   129 ; resid.=  1.21975222688858E-13
(PID.TID 0000.0001)  cg2d: iter=   130 ; resid.=  8.44448197293560E-14
DEBUG_STATS_RL:    cg2d_x (SOLVE_FOR_PRESSURE)  min= -1.95987834986126E+01
DEBUG_STATS_RL:    cg2d_x (SOLVE_FOR_PRESSURE)  max=  1.01833773448324E+01
DEBUG_STATS_RL:    cg2d_x (SOLVE_FOR_PRESSURE) mean= -1.95733143100108E+00
DEBUG_STATS_RL:    cg2d_x (SOLVE_FOR_PRESSURE) S.D.=  7.69876507004777E+00
(PID.TID 0000.0001)      cg2d_init_res =   2.22598010242867E-01
(PID.TID 0000.0001)      cg2d_iters(min,last) =      -1     130
(PID.TID 0000.0001)      cg2d_last_res =   8.44448197293560E-14
(PID.TID 0000.0001) // =======================================================
(PID.TID 0000.0001) // Begin MONITOR dynamic field statistics
(PID.TID 0000.0001) // =======================================================
(PID.TID 0000.0001) %MON time_tsnumber                =                    80
(PID.TID 0000.0001) %MON time_secondsf                =   6.9120000000000E+06
(PID.TID 0000.0001) %MON dynstat_eta_max              =   1.0380608914202E+00
(PID.TID 0000.0001) %MON dynstat_eta_min              =  -1.9978372577586E+00
(PID.TID 0000.0001) %MON dynstat_eta_mean             =  -5.4923595765419E-03
(PID.TID 0000.0001) %MON dynstat_eta_sd               =   6.8885452638591E-01
(PID.TID 0000.0001) %MON dynstat_eta_del2             =   2.4790620448260E-03
(PID.TID 0000.0001) %MON dynstat_uvel_max             =   1.5215479392824E-01
(PID.TID 0000.0001) %MON dynstat_uvel_min             =  -1.2761503093229E-01
(PID.TID 0000.0001) %MON dynstat_uvel_mean            =   2.5227033470080E-03
(PID.TID 0000.0001) %MON dynstat_uvel_sd              =   1.4549021864034E-02
(PID.TID 0000.0001) %MON dynstat_uvel_del2            =   9.1073417422299E-05
(PID.TID 0000.0001) %MON dynstat_vvel_max             =   1.3419682623506E-01
(PID.TID 0000.0001) %MON dynstat_vvel_min             =  -7.9889020453252E-02
(PID.TID 0000.0001) %MON dynstat_vvel_mean            =  -2.2364554264887E-05
(PID.TID 0000.0001) %MON dynstat_vvel_sd              =   8.3104027935896E-03
(PID.TID 0000.0001) %MON dynstat_vvel_del2            =   7.4716260651949E-05
(PID.TID 0000.0001) %MON dynstat_wvel_max             =   1.9148319835621E-04
(PID.TID 0000.0001) %MON dynstat_wvel_min             =  -6.8533118034295E-05
(PID.TID 0000.0001) %MON dynstat_wvel_mean            =   7.0946769593328E-23
(PID.TID 0000.0001) %MON dynstat_wvel_sd              =   1.0595925738873E-05
(PID.TID 0000.0001) %MON dynstat_wvel_del2            =   1.0585956224279E-07
(PID.TID 0000.0001) %MON dynstat_theta_max            =   3.1022020747388E+01
(PID.TID 0000.0001) %MON dynstat_theta_min            =  -1.9448721889320E+00
(PID.TID 0000.0001) %MON dynstat_theta_mean           =   3.6340667219082E+00
(PID.TID 0000.0001) %MON dynstat_theta_sd             =   4.4275092899806E+00
(PID.TID 0000.0001) %MON dynstat_theta_del2           =   4.8475891376865E-03
(PID.TID 0000.0001) %MON dynstat_salt_max             =   3.7473150818805E+01
(PID.TID 0000.0001) %MON dynstat_salt_min             =   2.9920568494251E+01
(PID.TID 0000.0001) %MON dynstat_salt_mean            =   3.4728013782005E+01
(PID.TID 0000.0001) %MON dynstat_salt_sd              =   2.9660415020299E-01
(PID.TID 0000.0001) %MON dynstat_salt_del2            =   9.9326699221947E-04
(PID.TID 0000.0001) %MON dynstat_sst_max              =   3.1022020747388E+01
(PID.TID 0000.0001) %MON dynstat_sst_min              =  -1.9448721889320E+00
(PID.TID 0000.0001) %MON dynstat_sst_mean             =   1.9068418980999E+01
(PID.TID 0000.0001) %MON dynstat_sst_sd               =   9.1787981242200E+00
(PID.TID 0000.0001) %MON dynstat_sst_del2             =   2.8862110705676E-02
(PID.TID 0000.0001) %MON dynstat_sss_max              =   3.7469845027770E+01
(PID.TID 0000.0001) %MON dynstat_sss_min              =   2.9920568494251E+01
(PID.TID 0000.0001) %MON dynstat_sss_mean             =   3.4847893302265E+01
(PID.TID 0000.0001) %MON dynstat_sss_sd               =   9.8684266379926E-01
(PID.TID 0000.0001) %MON dynstat_sss_del2             =   8.1935500501234E-03
(PID.TID 0000.0001) %MON forcing_qnet_max             =   2.5568675130208E+02
(PID.TID 0000.0001) %MON forcing_qnet_min             =  -1.6214360555013E+02
(PID.TID 0000.0001) %MON forcing_qnet_mean            =  -5.6769202742661E+00
(PID.TID 0000.0001) %MON forcing_qnet_sd              =   4.3119698090752E+01
(PID.TID 0000.0001) %MON forcing_qnet_del2            =   8.2388175904859E-01
(PID.TID 0000.0001) %MON forcing_qsw_max              =   0.0000000000000E+00
(PID.TID 0000.0001) %MON forcing_qsw_min              =   0.0000000000000E+00
(PID.TID 0000.0001) %MON forcing_qsw_mean             =   0.0000000000000E+00
(PID.TID 0000.0001) %MON forcing_qsw_sd               =   0.0000000000000E+00
(PID.TID 0000.0001) %MON forcing_qsw_del2             =   0.0000000000000E+00
(PID.TID 0000.0001) %MON forcing_empmr_max            =   6.8724137728774E-05
(PID.TID 0000.0001) %MON forcing_empmr_min            =  -8.3323801902679E-05
(PID.TID 0000.0001) %MON forcing_empmr_mean           =   4.6092959436842E-07
(PID.TID 0000.0001) %MON forcing_empmr_sd             =   2.6018259992401E-05
(PID.TID 0000.0001) %MON forcing_empmr_del2           =   3.6418795428609E-07
(PID.TID 0000.0001) %MON forcing_fu_max               =   3.5412625869115E-01
(PID.TID 0000.0001) %MON forcing_fu_min               =  -3.9228870868683E-01
(PID.TID 0000.0001) %MON forcing_fu_mean              =   1.9947960912656E-02
(PID.TID 0000.0001) %MON forcing_fu_sd                =   1.0113823229809E-01
(PID.TID 0000.0001) %MON forcing_fu_del2              =   8.1500595497074E-04
(PID.TID 0000.0001) %MON forcing_fv_max               =   1.8291634122531E-01
(PID.TID 0000.0001) %MON forcing_fv_min               =  -1.7970077792803E-01
(PID.TID 0000.0001) %MON forcing_fv_mean              =  -7.3836687505524E-03
(PID.TID 0000.0001) %MON forcing_fv_sd                =   4.1110049658616E-02
(PID.TID 0000.0001) %MON forcing_fv_del2              =   4.7130886411290E-04
(PID.TID 0000.0001) %MON trAdv_CFL_u_max              =   4.0930185530892E-02
(PID.TID 0000.0001) %MON trAdv_CFL_v_max              =   2.6567211624304E-02
(PID.TID 0000.0001) %MON trAdv_CFL_w_max              =   4.1798632086565E-02
(PID.TID 0000.0001) %MON advcfl_uvel_max              =   4.0831446348844E-02
(PID.TID 0000.0001) %MON advcfl_vvel_max              =   2.6072291079137E-02
(PID.TID 0000.0001) %MON advcfl_wvel_max              =   4.5326433802675E-02
(PID.TID 0000.0001) %MON advcfl_W_hf_max              =   4.8659259817577E-02
(PID.TID 0000.0001) %MON pe_b_mean                    =   6.0724485098609E-04
(PID.TID 0000.0001) %MON ke_max                       =   1.2777608872494E-02
(PID.TID 0000.0001) %MON ke_mean                      =   1.3006353499745E-04
(PID.TID 0000.0001) %MON ke_vol                       =   1.3226782436723E+18
(PID.TID 0000.0001) %MON vort_r_min                   =  -3.7643985087643E-07
(PID.TID 0000.0001) %MON vort_r_max                   =   3.9474470615180E-07
(PID.TID 0000.0001) %MON vort_a_mean                  =  -2.5274806891373E-05
(PID.TID 0000.0001) %MON vort_a_sd                    =   7.3604678038426E-05
(PID.TID 0000.0001) %MON vort_p_mean                  =  -3.1845655161825E-05
(PID.TID 0000.0001) %MON vort_p_sd                    =   1.3162516793557E-04
(PID.TID 0000.0001) %MON surfExpan_theta_mean         =  -2.2381749340935E-08
(PID.TID 0000.0001) %MON surfExpan_salt_mean          =   4.3837174611948E-08
(PID.TID 0000.0001) // =======================================================
(PID.TID 0000.0001) // End MONITOR dynamic field statistics
(PID.TID 0000.0001) // =======================================================
(PID.TID 0000.0001) // =======================================================
(PID.TID 0000.0001) // Field Current uVel   at iteration         80
(PID.TID 0000.0001) // CMIN =         -1.276150309322869E-01
(PID.TID 0000.0001) // CMAX =          1.521547939282354E-01
(PID.TID 0000.0001) // CINT =          1.036184536520453E-02
(PID.TID 0000.0001) // SYMBOLS (CMIN->CMAX): -abcdefghijklmnopqrstuvwxyz+
(PID.TID 0000.0001) //                  0.0: .
(PID.TID 0000.0001) // RANGE I (Lo:Hi:Step):(     1:    90:     1)
(PID.TID 0000.0001) // RANGE J (Lo:Hi:Step):(    40:     1:    -1)
(PID.TID 0000.0001) // RANGE K (Lo:Hi:Step):(   1:   1:   1)
(PID.TID 0000.0001) // =======================================================
(PID.TID 0000.0001) K =   1
(PID.TID 0000.0001)                I=10      I=20      I=30      I=40      I=50      I=60      I=70      I=80      I=90
(PID.TID 0000.0001) |--J--|123456789|123456789|123456789|123456789|123456789|123456789|123456789|123456789|123456789|
(PID.TID 0000.0001)     40 lllkl..llllllllllll...................................................................lkkl
(PID.TID 0000.0001)     39 mmnmmmllllllll....l......................................................lll.........kjkkl
(PID.TID 0000.0001)     38 mmnnmllllmmmm............................................................llll.......jjjkll
(PID.TID 0000.0001)     37 mnn...................................................................l....kl....jjij..lmm
(PID.TID 0000.0001)     36 on..........................................kkl.....................llmmmmlkjk..jjjklllmno
(PID.TID 0000.0001)     35 nm..................................lll...lkkkkl....klll............ll.....lkllkjlmmmmmopo
(PID.TID 0000.0001)     34 ....................................lkk..lkkklll..mllmmml...................mnmnnooppoon..
(PID.TID 0000.0001)     33 .....................................klmlkklmmnnnnnooooonml..................nnprsssrqoml.
(PID.TID 0000.0001)     32 .....................................kklllmnopqppppqqqqqpon.................oopstttsqponn.
(PID.TID 0000.0001)     31 .....................................lmnoopqqrrqqqqppppooon...............mqrpsttsrqponn..
(PID.TID 0000.0001)     30 ....................................pqrrqqrrqqqqppponnmmmnm.............opqqqqrrrqponnmm..
(PID.TID 0000.0001)     29 ..................................oqssrrqpppppoonnnnmmllllll............sqpoonnoonnmmmlk..
(PID.TID 0000.0001)     28 ................................pqrrqqpooooooponmmmmmmmllllkl..........qrpnmmmmmlllkkkkl..
(PID.TID 0000.0001)     27 ...............l...............oqpooonnnnooooonmmlllmlllkjjjjk....llm..pppponmmlkjjjii....
(PID.TID 0000.0001)     26 ...............ml............iikllkkkkjkklllkjjjjjijjiiiiiiijkmm..llklmnmnnnlkkjjiihhh....
(PID.TID 0000.0001)     25 ...............onm....ml....kijklkjijihhhiiiihhhiiijjiijjkkllmnnm....kkkkkmmmmllmllllk....
(PID.TID 0000.0001)     24 .............opponn..nnm....nn..nnkjjjjijkkjjjjlllllmmmnoooonnnmmmmm..mmlmoppppppppppo....
(PID.TID 0000.0001)     23 .............nlkkkk..kjk....ml...jihhhggiihiiijllkkklmnoooonmljjjkkll.....nnklkllmmnoo....
(PID.TID 0000.0001)     22 m............gcbccccfeei....l..feffedccdeeddeefhihhijlnopopmlljjjjiiii.......lhfeehknoppnm
(PID.TID 0000.0001)     21 mno.........fedcba-acfhkm......ggmkigfdeggfeffgghghhhiklnmlkkllmmmkjij.........hbbfilnnppo
(PID.TID 0000.0001)     20 lmn........kijkjjjgfhlmnn.........mlmlkjlmnllkkkkjihghiiihgfhjjllljihj..........gcfghjjkkl
(PID.TID 0000.0001)     19 jmm........jhijkmnkjkllllmm....jm......nopqqqpponlkjhiihhgfeeeeggffffh............igfghggh
(PID.TID 0000.0001)     18 iln........jfdfhiijjklkjjlkjiihhl....mnnnnopqoonljjkiiiiihhggfggfffffgk...........ljihhhhh
(PID.TID 0000.0001)     17 jkl..........gghgihjkjkkkkkjiii......lllkkkmmllkkjjjiiijjiiiijjjihiijkk..........mmkjiijjj
(PID.TID 0000.0001)     16 jjj.......l..lihijhijjkkjjkllk........lkkjklllkkkkkjjjjjjiijjjjkkjjkllll.........mlkjiiiij
(PID.TID 0000.0001)     15 gffi.....mn..onnnmlllnnmlkklm..........lklnmnnoooonnnmmmllllkkkkkkjjjjijk.......mnnmkjihhh
(PID.TID 0000.0001)     14 gfdf.....lkkmopqqoopnnnnmlkkl..........mlmnoppqqqqqqqqppooonmllkkkkjjihgj......kmoonnmkjii
(PID.TID 0000.0001)     13 iigg.....lkklmmnonnnmllmllkjj..........mmmnoqpppppppppppppooonmkklllkjjjk.....jklmnnnmmlkj
(PID.TID 0000.0001)     12 llkijifjkmmklllmmmmlllmmmllkkklllk.....mnmnnooonnnnmmnnnnnnnnnlkkmmmlllk......mmmmnnnnnnmm
(PID.TID 0000.0001)     11 qponmkloqssrrsrrrrrqppqqqpoonnnnmll...mnnml..oonnnmmmmmmmmnnnnmmmnoonnml.....mpqrrrrrrqqqq
(PID.TID 0000.0001)     10 utssstvvwxzzz++zyz+yxvvvvuutssrqpomm..oonnn..pqonmmmnnnnnnnooooppqqqppon...ooprsuvvvwwvvvv
(PID.TID 0000.0001)      9 xwwwwxyxyyzyxyzyxxzzzyxxxxxwvvuutsrqqpppon..qqpppooooopppppppppqqqqpppom..oooqstuvwxyyyyyy
(PID.TID 0000.0001)      8 vvwxxwvvvvuutttstsssvwwvvvwwwvvvvwwvvvutrqorqpqqrrrrrrrrssrqqqqrqqqpppoo..lllopqqrtuuvvvvv
(PID.TID 0000.0001)      7 rsttsrrrsrrrrqqqrqqpqrrrrsstttttuuvwxwwvvuusqqrrrrstuuuutssrrrrrrrrrrqqsrpnnoppooopqqqqqqr
(PID.TID 0000.0001)      6 ooooopppqqqpooooppponnnopppqqrrrrrsssstuvvvusrrsssstuvvvusrqqrrrrsssssttuvuuutrqpooooooooo
(PID.TID 0000.0001)      5 llllmnnoonnnmmmmnnnnmmmmmmmnooooooooopprstttsssssstssrrrrqqqqqrrrrrrsssttsrrtsqonnnnnnnnmm
(PID.TID 0000.0001)      4 kkkkklllmmlllllllmmmllllllllmmmmmmmmmmmnnopppqqqqppponnnnoppppppppppppppon...mmmmmmmmmmllk
(PID.TID 0000.0001)      3 kjjjkkkkll.............................llllllmmmmmlllkkllmmmmnnnmmmmmmmmm...llmlllllllkkkk
(PID.TID 0000.0001)      2 ...........................................kllllllkkkkkkkkkkklll...lll......lmlllllllll...
(PID.TID 0000.0001)      1 ..........................................................................................
(PID.TID 0000.0001) // =======================================================
(PID.TID 0000.0001) // END OF FIELD                                          =
(PID.TID 0000.0001) // =======================================================
(PID.TID 0000.0001) 
(PID.TID 0000.0001) // =======================================================
(PID.TID 0000.0001) // Field Current vVel   at iteration         80
(PID.TID 0000.0001) // CMIN =         -7.625159555820536E-02
(PID.TID 0000.0001) // CMAX =          1.341968262350636E-01
(PID.TID 0000.0001) // CINT =          7.794385992343296E-03
(PID.TID 0000.0001) // SYMBOLS (CMIN->CMAX): -abcdefghijklmnopqrstuvwxyz+
(PID.TID 0000.0001) //                  0.0: .
(PID.TID 0000.0001) // RANGE I (Lo:Hi:Step):(     1:    90:     1)
(PID.TID 0000.0001) // RANGE J (Lo:Hi:Step):(    40:     1:    -1)
(PID.TID 0000.0001) // RANGE K (Lo:Hi:Step):(   1:   1:   1)
(PID.TID 0000.0001) // =======================================================
(PID.TID 0000.0001) K =   1
(PID.TID 0000.0001)                I=10      I=20      I=30      I=40      I=50      I=60      I=70      I=80      I=90
(PID.TID 0000.0001) |--J--|123456789|123456789|123456789|123456789|123456789|123456789|123456789|123456789|123456789|
(PID.TID 0000.0001)     40 ijnom.jjiiijjj...jj..................................................................ihhii
(PID.TID 0000.0001)     39 kklmljiihiijk...........................................................jiij........giijjj
(PID.TID 0000.0001)     38 lmm.......................................................................ihi......hf.llkk
(PID.TID 0000.0001)     37 mn...................................................................ji...ihh...dhnmk.klkk
(PID.TID 0000.0001)     36 ll.........................................kllk....................jij....gfgi.dbikjjijllj
(PID.TID 0000.0001)     35 ...................................jjkj..kklmllk...gfjlm...................ffgfffhhgggjm..
(PID.TID 0000.0001)     34 ....................................jji.kjjjjjjj.gfggijll...................gcefffffedgj..
(PID.TID 0000.0001)     33 ....................................jhhihhhghhgffeefghiijkk.................oegggfffdccgk.
(PID.TID 0000.0001)     32 ....................................higfgggfffeeeffghhiiiik................onhijihhgfefj..
(PID.TID 0000.0001)     31 ....................................kkjiihhfggfffgghiiiihhi..............knmjjjjiiiiiijk..
(PID.TID 0000.0001)     30 ...................................lmkiiiihffggggfffgggggff............nolljiiiiiiiijklk..
(PID.TID 0000.0001)     29 .................................lkjjgfeffecceffffefffffffef...........nligfeefhiiijjklj..
(PID.TID 0000.0001)     28 ...............................pokigggfeffedefghiiiiihhhhhfef.........lkigfeefgjkjkkkj....
(PID.TID 0000.0001)     27 ..............ij..............nnmkjiijjkkjiijjklmmmmlkjjjigffh...jkmo.mmkjjjjjklllllki....
(PID.TID 0000.0001)     26 ..............ikj...........fhnmiijllmnonmlkkkllmlkjjjjjjhhhhijk....nmljhjjjjiijkjihhh....
(PID.TID 0000.0001)     25 ..............mnmi...jkj...gfi.lggijlmmmllkkjjkkkkkjjjjjjjjkkkkji....mkjihhhiijklkjjji....
(PID.TID 0000.0001)     24 ............orttqll.mmnl...mlm..ihkmnopqqrrqqrrqqqqppqrssssrpnnljkkj.....ponqrrssssrnj....
(PID.TID 0000.0001)     23 ............syywtpp.npro...kk...hkquwx++zyyzzzyyxxwvvwxyzyxwtrponmmml.......uvxxxyxvsl....
(PID.TID 0000.0001)     22 j...........nuvusonkknqr......hefiotvxzzxuuuvvuuuuuttuuvwvvurponmmmnkh........pruxwvtpmmkj
(PID.TID 0000.0001)     21 hii........mnpqomjihhjklh......-.finrttspnmlkllmmllmnnopppqqonlllkkjhf.........loutponlllj
(PID.TID 0000.0001)     20 fhk.......lmoolhededeefdc......-......khgghhggggggghihhhhfffgfddefgggg...........tpjhhghgf
(PID.TID 0000.0001)     19 deh.......jmrpjdbedeeeeddgj...fgj.....mkjklkkkkjkkklkjihfeddcbaabccdfh...........lkgeedccc
(PID.TID 0000.0001)     18 egi.......k.rsljihiiikjhhjkjjih.....kmonnnnnoppppnnoonmlkjiigeeddcccefi..........lmkihfddd
(PID.TID 0000.0001)     17 kkk.......k.mqlkhgiiijjiiijjii.......jjjjklmnmmmlkkllmlllkkkkjjjihggijk.........hjlllkkjjk
(PID.TID 0000.0001)     16 noo......kl.higffeehfdegghihi.........hfefghhiihhgghhihhhiiiijjkjijjlmml........gghhjkkklm
(PID.TID 0000.0001)     15 klnk....iik.effffdehebdfghhgh.........geedffghhggffghhhghijiikkkjijklmnnk......ifghhijjjkk
(PID.TID 0000.0001)     14 kllk....ghljhjkjjhikhffhjihhh.........hfhiiiijihhhiiijiiijjijlllljkkkkllk.....giikkjklklml
(PID.TID 0000.0001)     13 mlll....bgllklmlllllkjjklkiij.........hhjlmjjjjijjjjjjjjjjiijlklmlkkkkll.....efhijlkkllmnm
(PID.TID 0000.0001)     12 llkkke-baejjhhjjjjjkiiijkjjjihhikl....ghjkm.hijjjjiiiiijjiiiiihjmmkjkkml.....egggghhhijkkl
(PID.TID 0000.0001)     11 kkkjhfeedfijhfhijjijjiijkkkkihhhhjj..hgiikl.ijihiihhiiijkjijihhjnnlkjkll....fgjiggggghhikk
(PID.TID 0000.0001)     10 nmmmlkihilonkjjknnkjkmmnnnnnmkjjjjmm.iijjk..olihjjjjjjiklmnmlkkmppommlll..opjlonlkjjiiklnn
(PID.TID 0000.0001)      9 ppqrrqmlnqrrppnlrvoknprrrqqqponmmmorqmlllm.rqnkllmllmnnnopqponnprrqponkl.nqsqrtspoonmmnpqq
(PID.TID 0000.0001)      8 qqrqqpnnopqrqpnlovuppqqrrrqqpppppprtspmklotvqonnoonnnooqqqrqpooprqqponjj.npsttutqoonnnopqr
(PID.TID 0000.0001)      7 qpommmmnnnnoonmmlosrpnnppooooppppprsromkknqrqpooppppponopoooonooopponmmmprprttsqonnmmnoopq
(PID.TID 0000.0001)      6 nmkkklmmmlllllkkklmnnmmmllllmnnnmmnonmlllmnmnnoooopppnlkkklnnnmmnnnnmmmnpppqpoonllllllmnnn
(PID.TID 0000.0001)      5 kjiiijjkkjiiiiiijjjjjjihghhijjjjijjjkkkkkllkjlnnnnnnnlkkjjklmllkllmlllmmmm..jikkkkkkkklkkk
(PID.TID 0000.0001)      4 gfefffefgg............................ihhijjjjllmlllkkjjkkkkkjjiijjjjjijj...jjjjjjjjjjiihh
(PID.TID 0000.0001)      3 ..........................................iiiiijjjjiiiiijjihhggh..jihi.....ijkjiiiiiihh...
(PID.TID 0000.0001)      2 ..........................................................................................
(PID.TID 0000.0001)      1 ..........................................................................................
(PID.TID 0000.0001) // =======================================================
(PID.TID 0000.0001) // END OF FIELD                                          =
(PID.TID 0000.0001) // =======================================================
(PID.TID 0000.0001) 
(PID.TID 0000.0001) // =======================================================
(PID.TID 0000.0001) // Field Current theta  at iteration         80
(PID.TID 0000.0001) // CMIN =         -1.944872188931972E+00
(PID.TID 0000.0001) // CMAX =          3.102202074738842E+01
(PID.TID 0000.0001) // CINT =          1.220996034678533E+00
(PID.TID 0000.0001) // SYMBOLS (CMIN->CMAX): -abcdefghijklmnopqrstuvwxyz+
(PID.TID 0000.0001) //                  0.0: .
(PID.TID 0000.0001) // RANGE I (Lo:Hi:Step):(     1:    90:     1)
(PID.TID 0000.0001) // RANGE J (Lo:Hi:Step):(    40:     1:    -1)
(PID.TID 0000.0001) // RANGE K (Lo:Hi:Step):(   1:   1:   1)
(PID.TID 0000.0001) // =======================================================
(PID.TID 0000.0001) K =   1
(PID.TID 0000.0001)                I=10      I=20      I=30      I=40      I=50      I=60      I=70      I=80      I=90
(PID.TID 0000.0001) |--J--|123456789|123456789|123456789|123456789|123456789|123456789|123456789|123456789|123456789|
(PID.TID 0000.0001)     40 -bbccba-------abcddbbbbbbbbbbbbbbbbbbbbbbbbbbbbbbbbbbbbbbbbbbbbbbbbbbbbbbbbbbbbbbbbbbaaa--
(PID.TID 0000.0001)     39 bbccccbbaa----bbbddbbbbbbbbbbbbbbbbbbbbbbbbbbbbbbbbbbbbbbbbbbbbbbbbbbbbb----bbbbbbbbaaaaaa
(PID.TID 0000.0001)     38 deeeeecccbaa-bbbbbbbbbbbbbbbbbbbbbbbbbbbbbbbbbbbbbbbbbbbbbbbbbbbbbbbbbbb-----bbbbbba--abcc
(PID.TID 0000.0001)     37 ffgbbbbbbbbbbbbbbbbbbbbbbbbbbbbbbbbbbbbbbbbbbbbbbbbbbbbbbbbbbbbbbbbbbbbbbba-abbbbaeeebcdde
(PID.TID 0000.0001)     36 ggbbbbbbbbbbbbbbbbbbbbbbbbbbbbbbbbbbbbbbbbbba--bbbbbbbbbbbbbbbbbbbbcccbbaaabadbceffghhhggg
(PID.TID 0000.0001)     35 ffbbbbbbbbbbbbbbbbbbbbbbbbbbbbbbbbb----bbabcccb-bbbddeefbbbbbbbbbbbbbbbbbbbcddddeffhhiiihg
(PID.TID 0000.0001)     34 bbbbbbbbbbbbbbbbbbbbbbbbbbbbbbbbbbb----bacccccccbccedefffbbbbbbbbbbbbbbbbbbbabdeefghiijibb
(PID.TID 0000.0001)     33 bbbbbbbbbbbbbbbbbbbbbbbbbbbbbbbbbbbb--abbcccccdddeeeefffgghbbbbbbbbbbbbbbbbbaacfhijjkjjjjb
(PID.TID 0000.0001)     32 bbbbbbbbbbbbbbbbbbbbbbbbbbbbbbbbbbbb-abbccddddeeffggggghhhibbbbbbbbbbbbbbbbdcaaikllllkkkjb
(PID.TID 0000.0001)     31 bbbbbbbbbbbbbbbbbbbbbbbbbbbbbbbbbbbbdeefgggghihhhihiijjjjjjbbbbbbbbbbbbbbhilkgjlmmmmmlllbb
(PID.TID 0000.0001)     30 bbbbbbbbbbbbbbbbbbbbbbbbbbbbbbbbbbbkjjjjjkkkkkkkkkkkllmmmllbbbbbbbbbbbbmmmoooooooooonnnnbb
(PID.TID 0000.0001)     29 bbbbbbbbbbbbbbbbbbbbbbbbbbbbbbbbbnnnnnnmmnnmnnnnnnnnnooonnmmbbbbbbbbbbbopqqqqpppppppoooobb
(PID.TID 0000.0001)     28 bbbbbbbbbbbbbbbbbbbbbbbbbbbbbbbmopppppoopppppppppppppqqpponnnbbbbbbbbbqrrrqrrqqqqqppppppbb
(PID.TID 0000.0001)     27 bbbbbbbbbbbbbbuubbbbbbbbbbbbbbqqrrrrrrrrrssrsssrsssrrrrrqqpoppbbbrrrsbsttttttssssrrrqqbbbb
(PID.TID 0000.0001)     26 bbbbbbbbbbbbbbuttbbbbbbbbbbbtstttttuuuuuuuuuuuuttttttssrrrqqqrsubstuvuuuuuuuuutttsrrqqbbbb
(PID.TID 0000.0001)     25 bbbbbbbbbbbbbbuuvvbbbwvwbbbuuvvvvvvwwwwwvvvvvvuuuuuutttsssssstuvwbbbvvvvvuvuuuuutssrqqbbbb
(PID.TID 0000.0001)     24 bbbbbbbbbbbbvvvvwxybwwwxbbbwwwbwwwwxwwwwwwvvvvvvvvuvvvvvvvvvvvvwwvvwbwvvvvvuuuuutttttsbbbb
(PID.TID 0000.0001)     23 bbbbbbbbbbbbwwwxxyybwxxxbbbxwwbbwxxxxxxxxxwwwwwwwwwwwwwwwwwwwwwwwwwxvbbbbwvvvvvvvvvvvwbbbb
(PID.TID 0000.0001)     22 wbbbbbbbbbbbwwwxxyyyxxyybbbxxbzyxxxyyxyyyyxxxxxxxxxxxxxwwwwwwwwwwwwvvwbbbbbbxwwwwwxxxyyyxw
(PID.TID 0000.0001)     21 wvvbbbbbbbbxxxxxxxyyyyzz+bbbbbzyzzzzyzzzzzzyyyyyyyyyyyxxxxxxxxxxxxwvvvbbbbbbbbxxxyyyyyzyxw
(PID.TID 0000.0001)     20 wvvbbbbbbbyyyyyyyyyzzzzz+bbbbbbzbzzzzz++++zzzzzzzzzzyyyyxxxxxxxxxxxwwvbbbbbbbbbyyyyyyyyxxw
(PID.TID 0000.0001)     19 vvwbbbbbbbzzzyyyyyyyyyyyzzybbbzzzbbbbbzzzz++zzzzzzzzyyyxxxxxwwwvvwwvvubbbbbbbbbbbyxxwwwvwv
(PID.TID 0000.0001)     18 vuubbbbbbbzzyxxxyyyyyyyyyyzzzz+zzbbb++zzzz+zzzzzzzzzyyyyxxxxwwwvvvvvuutbbbbbbbbbbyxxwwvvwv
(PID.TID 0000.0001)     17 uutbbbbbbbzbyxxxxxxxyyyxyyyyyzzbbbbbzzyzzzzzzzzzzyzzyyxxxxxxwwwvuvvuttvbbbbbbbbbxyyxxvuvvv
(PID.TID 0000.0001)     16 utsbbbbbbyzbyxxxxwwwxxwwwwxxyzbbbbbbbxxxyyyyyyyyyyyyyyxxxxxxxwwwvvvuutstbbbbbbbbxyyyxwvvvu
(PID.TID 0000.0001)     15 tsrrbbbbwxxbwxwwwvwvwwwvuuvvxbbbbbbbbbwwwxxxxxxxxxxxxxxxxxyxxwwwvvuuttssrbbbbbbxxxxxxxwwvu
(PID.TID 0000.0001)     14 tsrqbbbbwxwvwwwvwwwvuuuuttttubbbbbbbbbvvvwwwwwwwwwwxxxxwxxxxxwwvvvvutssssbbbbbvwxxxxxwwwvu
(PID.TID 0000.0001)     13 utsqbbbbvxwvwwvuvvvvuuutsssssbbbbbbbbbuvvvvvvvvvvvuvvvwvvwwxxwvvvuuutssspbbbbvvwwwwwwwwvvu
(PID.TID 0000.0001)     12 ssssssqsuvutuutssssstutrrssrrqqrrqbbbbtuuutttttsststttttttuuuttttsstssrrbbbbbtvvvutuuuuttt
(PID.TID 0000.0001)     11 qpppqqrsrsrqrsrqqqpppqqppqppppqqqqqbbssssssbrrrqrrrrrrrrrrssqqqrrqrrrrqpbbbboqsssrrrsrrqqq
(PID.TID 0000.0001)     10 mmllmnopppoooponnmnnmnnmmmmllnnooooobqrrqqqbpqqqqqqppppppppooopoooooopoobbopppppooonoppoon
(PID.TID 0000.0001)      9 jjjiijjkkjjkkkkjjiijkjjiiijjijkklmnmmnooopbnnoooooooooooonmmmmmmmmllmmmmbmnnnnmmlllkklllkj
(PID.TID 0000.0001)      8 ggggggghhgghhiiihghhhhhggghhhhijjjjjjkkllmmlllllllllmmllllkkkjkkkkkjkklkbkklkkjjiiiihhhggf
(PID.TID 0000.0001)      7 eeeeefffggfffggggfffffeeeffggggghhhghiijjkjjjjjkkjjjiiiiiiiiiihiiiiiiijjiijiiihhgffffffeee
(PID.TID 0000.0001)      6 ddddeeeeeeeeeefeefeeeeefeeeeddefffeffggghhhhhhhhihggffggggggffffggghhhhhhhhhhgffeeeeeddddd
(PID.TID 0000.0001)      5 ddddddddddeeeeeeeeedddeedddddeeeeeeeeeeffffffffeffedddeeeeeeeeeeeeefffffeffeeeeddddddcdccd
(PID.TID 0000.0001)      4 ddddddccccccccccccccccccbbbbccccccbbccccddddddcccddddddddddccdddddddddddddbbbbbbcccccccccc
(PID.TID 0000.0001)      3 cccbbbbaaabbbbbbbbbbbbbbbbbbbbbbbbbbbbbbaaabbbbbbcccccbbbbbbbbbbbbbbbbbbbbbbbaaabbccccbbbb
(PID.TID 0000.0001)      2 bbbbbbbbbbbbbbbbbbbbbbbbbbbbbbbbbbbbbbbbbbaabbbbbbbbbaaaaaaaaaaabbaaaabbbbbaaaaaabbbbbbbbb
(PID.TID 0000.0001)      1 bbbbbbbbbbbbbbbbbbbbbbbbbbbbbbbbbbbbbbbbbbbbbbbbbbbbbbbbbbbbbbbbbbbbbbbbbbbbbbbbbbbbbbbbbb
(PID.TID 0000.0001) // =======================================================
(PID.TID 0000.0001) // END OF FIELD                                          =
(PID.TID 0000.0001) // =======================================================
(PID.TID 0000.0001) 
(PID.TID 0000.0001) // =======================================================
(PID.TID 0000.0001) // Field Current etaN   at iteration         80
(PID.TID 0000.0001) // CMIN =         -1.997837257758589E+00
(PID.TID 0000.0001) // CMAX =          1.038060891420166E+00
(PID.TID 0000.0001) // CINT =          1.124406721918057E-01
(PID.TID 0000.0001) // SYMBOLS (CMIN->CMAX): -abcdefghijklmnopqrstuvwxyz+
(PID.TID 0000.0001) //                  0.0: .
(PID.TID 0000.0001) // RANGE I (Lo:Hi:Step):(    -1:    92:     1)
(PID.TID 0000.0001) // RANGE J (Lo:Hi:Step):(    42:    -1:    -1)
(PID.TID 0000.0001) // RANGE K (Lo:Hi:Step):(   1:   1:   1)
(PID.TID 0000.0001) // =======================================================
(PID.TID 0000.0001) K =   1
(PID.TID 0000.0001)                I=8       I=18      I=28      I=38      I=48      I=58      I=68      I=78      I=88
(PID.TID 0000.0001) |--J--|101234567|901234567|901234567|901234567|901234567|901234567|901234567|901234567|901234567|9012
(PID.TID 0000.0001)     42 ............................................cccccccddddddddddcdddd..eeee.....-aaaaaaaaaa-.....
(PID.TID 0000.0001)     41 ..............................................................................................
(PID.TID 0000.0001)     40 ihhhhii.kkkkjjjjjjjjj..................................................................iiiihhh
(PID.TID 0000.0001)     39 ihhhhiijjjiiiiii...jj.....................................................iiii........iiiiihhh
(PID.TID 0000.0001)     38 iiiiijjjiiiiiii...........................................................iiihh......jhhhhiiii
(PID.TID 0000.0001)     37 iiiik..................................................................kk...iih...ghghg.hiiiii
(PID.TID 0000.0001)     36 iijk.........................................qqqq....................kkkkjjihhhh.igfghhiiiiijk
(PID.TID 0000.0001)     35 kkjj.................................rrrr..qqqqqqq...sqqrr...........kkk....jhggggffghhhiikkjj
(PID.TID 0000.0001)     34 .....................................rrrr.rqqqqqqq.qqqpqqrs..................jihgggghiijjm....
(PID.TID 0000.0001)     33 l.....................................rrrrqqqqqqqqqqqqqqqrrst.................kiiiiiijkkkkl...
(PID.TID 0000.0001)     32 m.....................................rrrqqqqqqrrrrrrrrrrssss................glkjjkllllllkm...
(PID.TID 0000.0001)     31 ......................................qqrqrrrrrsssssssssstttt..............jkllllllllmllll....
(PID.TID 0000.0001)     30 .....................................qssssssttsttttttttttuutt............ikkmnnnonnnnmmmll....
(PID.TID 0000.0001)     29 ...................................tuuvvvvvvvvvuvvvuuuuuuuuutt...........lnooppooooonnmmmm....
(PID.TID 0000.0001)     28 .................................uwwxxyxxxxxxxwwwwvvvvvvvvvuutt.........ooppppppoooonnmmmm....
(PID.TID 0000.0001)     27 ................ss..............xxyyyzzzyyyyyyxxxwwwwwvvvvvvuutt...pppp.pqqqpppoooonnnmm......
(PID.TID 0000.0001)     26 ................sss...........zyzzzzzzzzzzzzyyyxxxwwwwwwvvvvuuuttu.pppqrqqqqqqppoooonnnm......
(PID.TID 0000.0001)     25 ................sstt...uuu...zyyyzzzzzzyzzzzyyyxxxwwwwwwwvvvuuuuuuv...qqrrqqqqpppooonnnm......
(PID.TID 0000.0001)     24 ..............tttttuu.uuvv...zyy.+zyyyyyyyyyyxxxxwwwwwwwvvvvvvuuuvvuuu.qqqqqqqpppooonnnn......
(PID.TID 0000.0001)     23 ..............ttttuuu.vvvv...zzy..zyxxxxxxxxxxxxwwwwwwwwvvvvvvvuuuuuuuu....qppppppooooop......
(PID.TID 0000.0001)     22 ppp...........ttttuuuvuuvv...zz.zzyxxxxxxxxxxxxxxxwwwwwwwwwwvvvvvuuuuuuu......ppppppppppppppp.
(PID.TID 0000.0001)     21 ppppp........uuuuuttuuuuvvv.....zyyyyyxxxxxxxxxxxxxxxxwwwwwvvvvvvuuuuuuu........qpppqppqqppppp
(PID.TID 0000.0001)     20 pooop.......vvuuuttttuuuvvv......y.zzzzzyyxxxxxxxxxxxwwwwvvvvvvuuuuuuuuu.........qqqqppppppooo
(PID.TID 0000.0001)     19 oooop.......vvuuttttuuuuuuuuu...xxx.....yyyyyxxxxxxxxxwwwvvvvuuuuttuuutt...........qppppoooooo
(PID.TID 0000.0001)     18 ooooo.......wvvutttuuuuuuuuuvvvwwxx...zzyyyyyyyxxxxxxxwwwvvvvuuuutttttttt..........rqppooooooo
(PID.TID 0000.0001)     17 ooooo.......w.xvuuvuvvvvvvvvvvvvw.....yyxxxxxxxxxxxxxxxwwwwwwvvvuuuuuuttt.........rrqqppoooooo
(PID.TID 0000.0001)     16 ppoon......xx.xwvvvvwvvvvvuuuvvv.......xxxxxxxxxxxxxxxxxwwwwwwwwvvvuuuuttt........rrrrqqppppoo
(PID.TID 0000.0001)     15 qppoon....vwv.vvvvvvwvuvvvutttv.........wwwxxxxxxxxxxxxxxxxxxwwwwvvvvuuttss......qrrrrrrqqqppo
(PID.TID 0000.0001)     14 rqppon....vwvtvvvvvvvvuuuuttsst.........vwwwwwwwwwwwwwxxxxxxxxxxwvvvvvuutts.....qrrrrrssrrrqpp
(PID.TID 0000.0001)     13 rrqqpn....vwvvvvuuuuuuuuuuttssr.........uvwwvvvvvvvvvvvwwwwwxxxxwwwvvvuutts....prrrrrsssssrrqq
(PID.TID 0000.0001)     12 rrqqppomqsuvvuuuuuuttttuuutsssssssss....uuuuuttuuuutuuuuuvvvvvwvwwvvuuuuts.....qqrrrrrssssrrqq
(PID.TID 0000.0001)     11 qqpppooqrstuuttuttttttstttsssrrrsssss..ttttuu.stttttttuuuuuuuuuuvwvuutttss....moppppppqqqqqqpp
(PID.TID 0000.0001)     10 oonnnnnoopqqqpppqqqqqqqrrrrrqqqqqrrsrr.rsttuv.rsrssttttuuuuttttuuvuttsssst..pmnonmmmnnnoopoonn
(PID.TID 0000.0001)      9 lkklllkkklmmlkkkkllklmnnnnnooooopqqrsrqrrsst.srqrssstttttuuutttttttssrrrrr.nnmmmlkjjjjjklllkkl
(PID.TID 0000.0001)      8 gggghhggghihhhhhhikigijjjjjkkkllmnnoppppqrsttqppqqqrrssssssssrrrsssrrqrrsv.onmlkiggggggghhgggg
(PID.TID 0000.0001)      7 ddccccddeeffffeefgghgfeeffggghhiijjkkkjklnopponnnnonnooopppooooppppppppppqqonnljhfedddddddddcc
(PID.TID 0000.0001)      6 baa-aabcccccdddddeeeeeddeeeeeffggggggffghijkllkkkkkkkjjjjkkkllllllmmlllmmmlkjihfedccbbbcbbbaa-
(PID.TID 0000.0001)      5 aa--aabbbbbbbcccccdddddccccddddddddeeeeeeeffgghhhgggffeeeffhhiiiiiiiihhhhhgfddbbbaaaaaaaaaaa--
(PID.TID 0000.0001)      4 --aaaaabbbbbcccccccccccccddddddddddddddddddddddedddcccccddeeeffffffffffeeeef..-aaaaaaaa-----aa
(PID.TID 0000.0001)      3 aaabbbbbbccc............................ccccccccccccccccddddddddddeeeeeeefe..aa--aaaaaaaaaaaab
(PID.TID 0000.0001)      2 ............................................cccccccddddddddddcdddd..eeee.....-aaaaaaaaaa-.....
(PID.TID 0000.0001)      1 ..............................................................................................
(PID.TID 0000.0001)      0 ihhhhii.kkkkjjjjjjjjj..................................................................iiiihhh
(PID.TID 0000.0001)     -1 ihhhhiijjjiiiiii...jj.....................................................iiii........iiiiihhh
(PID.TID 0000.0001) // =======================================================
(PID.TID 0000.0001) // END OF FIELD                                          =
(PID.TID 0000.0001) // =======================================================
(PID.TID 0000.0001) 
(PID.TID 0000.0001)  MDS_WRITE_FIELD: it,rec,kS,kL,kH=      80     1  15   1  15 file=U.0000000080
(PID.TID 0000.0001)  MDS_WRITE_FIELD: it,rec,kS,kL,kH=      80     1  15   1  15 file=V.0000000080
(PID.TID 0000.0001)  MDS_WRITE_FIELD: it,rec,kS,kL,kH=      80     1  15   1  15 file=T.0000000080
(PID.TID 0000.0001)  MDS_WRITE_FIELD: it,rec,kS,kL,kH=      80     1  15   1  15 file=S.0000000080
(PID.TID 0000.0001)  MDS_WRITE_FIELD: it,rec,kS,kL,kH=      80     1   1   1   1 file=Eta.0000000080
(PID.TID 0000.0001)  MDS_WRITE_FIELD: it,rec,kS,kL,kH=      80     1  15   1  15 file=W.0000000080
(PID.TID 0000.0001)  MDS_WRITE_FIELD: it,rec,kS,kL,kH=      80     1  15   1  15 file=PH.0000000080
(PID.TID 0000.0001)  MDS_WRITE_FIELD: it,rec,kS,kL,kH=      80     1   1   1   1 file=PHL.0000000080
(PID.TID 0000.0001)  MDS_WRITE_FIELD: it,rec,kS,kL,kH=      80     1   1   1   1 file=ETAtave.0000000080
(PID.TID 0000.0001)  MDS_WRITE_FIELD: it,rec,kS,kL,kH=      80     1  15   1  15 file=Ttave.0000000080
(PID.TID 0000.0001)  MDS_WRITE_FIELD: it,rec,kS,kL,kH=      80     1  15   1  15 file=Stave.0000000080
(PID.TID 0000.0001)  MDS_WRITE_FIELD: it,rec,kS,kL,kH=      80     1  15   1  15 file=uVeltave.0000000080
(PID.TID 0000.0001)  MDS_WRITE_FIELD: it,rec,kS,kL,kH=      80     1  15   1  15 file=vVeltave.0000000080
(PID.TID 0000.0001)  MDS_WRITE_FIELD: it,rec,kS,kL,kH=      80     1  15   1  15 file=wVeltave.0000000080
(PID.TID 0000.0001)  MDS_WRITE_FIELD: it,rec,kS,kL,kH=      80     1   1   1   1 file=Eta2tave.0000000080
(PID.TID 0000.0001)  MDS_WRITE_FIELD: it,rec,kS,kL,kH=      80     1  15   1  15 file=UTtave.0000000080
(PID.TID 0000.0001)  MDS_WRITE_FIELD: it,rec,kS,kL,kH=      80     1  15   1  15 file=VTtave.0000000080
(PID.TID 0000.0001)  MDS_WRITE_FIELD: it,rec,kS,kL,kH=      80     1  15   1  15 file=WTtave.0000000080
(PID.TID 0000.0001)  MDS_WRITE_FIELD: it,rec,kS,kL,kH=      80     1  15   1  15 file=UStave.0000000080
(PID.TID 0000.0001)  MDS_WRITE_FIELD: it,rec,kS,kL,kH=      80     1  15   1  15 file=VStave.0000000080
(PID.TID 0000.0001)  MDS_WRITE_FIELD: it,rec,kS,kL,kH=      80     1  15   1  15 file=WStave.0000000080
(PID.TID 0000.0001)  MDS_WRITE_FIELD: it,rec,kS,kL,kH=      80     1  15   1  15 file=TTtave.0000000080
(PID.TID 0000.0001)  MDS_WRITE_FIELD: it,rec,kS,kL,kH=      80     1  15   1  15 file=UUtave.0000000080
(PID.TID 0000.0001)  MDS_WRITE_FIELD: it,rec,kS,kL,kH=      80     1  15   1  15 file=VVtave.0000000080
(PID.TID 0000.0001)  MDS_WRITE_FIELD: it,rec,kS,kL,kH=      80     1  15   1  15 file=UVtave.0000000080
(PID.TID 0000.0001)  MDS_WRITE_FIELD: it,rec,kS,kL,kH=      80     1  15   1  15 file=Tdiftave.0000000080
(PID.TID 0000.0001)  MDS_WRITE_FIELD: it,rec,kS,kL,kH=      80     1  15   1  15 file=PhHytave.0000000080
(PID.TID 0000.0001)  MDS_WRITE_FIELD: it,rec,kS,kL,kH=      80     1   1   1   1 file=PHLtave.0000000080
(PID.TID 0000.0001)  MDS_WRITE_FIELD: it,rec,kS,kL,kH=      80     1   1   1   1 file=uFluxtave.0000000080
(PID.TID 0000.0001)  MDS_WRITE_FIELD: it,rec,kS,kL,kH=      80     1   1   1   1 file=vFluxtave.0000000080
(PID.TID 0000.0001)  MDS_WRITE_FIELD: it,rec,kS,kL,kH=      80     1   1   1   1 file=tFluxtave.0000000080
(PID.TID 0000.0001)  MDS_WRITE_FIELD: it,rec,kS,kL,kH=      80     1   1   1   1 file=sFluxtave.0000000080
(PID.TID 0000.0001)  MDS_WRITE_FIELD: it,rec,kS,kL,kH=      80     1   1   1   1 file=PHL2tave.0000000080
(PID.TID 0000.0001)  MDS_WRITE_FIELD: it,rec,kS,kL,kH=      80     1  15   1  15 file=Convtave.0000000080
(PID.TID 0000.0001) // Time-average data written, t-step        80
(PID.TID 0000.0001) 
(PID.TID 0000.0001)  MDS_WRITE_FIELD: it,rec,kS,kL,kH=      80     1  15   1  15 file=GM_Kwx-T.0000000080
(PID.TID 0000.0001)  MDS_WRITE_FIELD: it,rec,kS,kL,kH=      80     1  15   1  15 file=GM_Kwy-T.0000000080
(PID.TID 0000.0001)  MDS_WRITE_FIELD: it,rec,kS,kL,kH=      80     1  15   1  15 file=GM_Kwz-T.0000000080
(PID.TID 0000.0001)  MDS_WRITE_FIELD: it,rec,kS,kL,kH=      80     1  15   1  15 file=pickup_cd.0000000080
(PID.TID 0000.0001)  MDS_WRITE_FIELD: it,rec,kS,kL,kH=      80     2  15   1  15 file=pickup_cd.0000000080
(PID.TID 0000.0001)  MDS_WRITE_FIELD: it,rec,kS,kL,kH=      80     3  15   1  15 file=pickup_cd.0000000080
(PID.TID 0000.0001)  MDS_WRITE_FIELD: it,rec,kS,kL,kH=      80     4  15   1  15 file=pickup_cd.0000000080
(PID.TID 0000.0001)  MDS_WRITE_FIELD: it,rec,kS,kL,kH=      80    61   1   1   1 file=pickup_cd.0000000080
(PID.TID 0000.0001)  MDS_WRITE_FIELD: it,rec,kS,kL,kH=      80    -1  15   1  15 file=pickup.0000000080
(PID.TID 0000.0001)  MDS_WRITE_FIELD: it,rec,kS,kL,kH=      80    -2  15   1  15 file=pickup.0000000080
(PID.TID 0000.0001)  MDS_WRITE_FIELD: it,rec,kS,kL,kH=      80    -3  15   1  15 file=pickup.0000000080
(PID.TID 0000.0001)  MDS_WRITE_FIELD: it,rec,kS,kL,kH=      80    -4  15   1  15 file=pickup.0000000080
(PID.TID 0000.0001)  MDS_WRITE_FIELD: it,rec,kS,kL,kH=      80    -5  15   1  15 file=pickup.0000000080
(PID.TID 0000.0001)  MDS_WRITE_FIELD: it,rec,kS,kL,kH=      80    -6  15   1  15 file=pickup.0000000080
(PID.TID 0000.0001)  MDS_WRITE_FIELD: it,rec,kS,kL,kH=      80    -7  15   1  15 file=pickup.0000000080
(PID.TID 0000.0001)  MDS_WRITE_FIELD: it,rec,kS,kL,kH=      80    -8  15   1  15 file=pickup.0000000080
(PID.TID 0000.0001)  MDS_WRITE_FIELD: it,rec,kS,kL,kH=      80  -121   1   1   1 file=pickup.0000000080
(PID.TID 0000.0001)  MDS_WRITE_FIELD: it,rec,kS,kL,kH=      80  -122   1   1   1 file=pickup.0000000080
(PID.TID 0000.0001)  MDS_WRITE_FIELD: it,rec,kS,kL,kH=      80  -123   1   1   1 file=pickup.0000000080
(PID.TID 0000.0001) %CHECKPOINT        80 0000000080
 EXTERNAL_FIELDS_LOAD,        80 : iP,iLd,i0,i1=    3    4    3    4 ; Wght=  0.8333333333  0.1666666667
 EXTERNAL_FIELDS_LOAD: (fu0,1),fu,fv= -2.7199E-02 -3.7252E-02 -2.8874E-02 -6.3511E-03
 EXTERNAL_FIELDS_LOAD: SST,SSS,Q,E-P= -1.4736E-01  3.4577E+01  1.9685E+02  8.8622E-06
DEBUG_STATS_RL:          Uvel (THERMODYNAMICS)  min= -1.27615030932287E-01
DEBUG_STATS_RL:          Uvel (THERMODYNAMICS)  max=  1.52154793928235E-01
DEBUG_STATS_RL:          Uvel (THERMODYNAMICS) mean=  6.31260247555625E-03
DEBUG_STATS_RL:          Uvel (THERMODYNAMICS) S.D.=  2.25377904725949E-02
DEBUG_STATS_RL:          Vvel (THERMODYNAMICS)  min= -7.98890204532520E-02
DEBUG_STATS_RL:          Vvel (THERMODYNAMICS)  max=  1.34196826235064E-01
DEBUG_STATS_RL:          Vvel (THERMODYNAMICS) mean=  1.02816369994685E-03
DEBUG_STATS_RL:          Vvel (THERMODYNAMICS) S.D.=  1.34993123844699E-02
DEBUG_STATS_RL:          Wvel (THERMODYNAMICS)  min= -6.85331180342950E-05
DEBUG_STATS_RL:          Wvel (THERMODYNAMICS)  max=  1.91483198356207E-04
DEBUG_STATS_RL:          Wvel (THERMODYNAMICS) mean=  9.76784485706497E-09
DEBUG_STATS_RL:          Wvel (THERMODYNAMICS) S.D.=  9.44286174443993E-06
DEBUG_STATS_RL:         Theta (THERMODYNAMICS)  min= -1.94376611203658E+00
DEBUG_STATS_RL:         Theta (THERMODYNAMICS)  max=  3.10440828377930E+01
DEBUG_STATS_RL:         Theta (THERMODYNAMICS) mean=  3.23127234790586E+00
DEBUG_STATS_RL:         Theta (THERMODYNAMICS) S.D.=  5.88689111918492E+00
DEBUG_STATS_RL:          Salt (THERMODYNAMICS)  min=  9.99999999999997E-03
DEBUG_STATS_RL:          Salt (THERMODYNAMICS)  max=  3.74728458444423E+01
DEBUG_STATS_RL:          Salt (THERMODYNAMICS) mean=  1.88547772153238E+01
DEBUG_STATS_RL:          Salt (THERMODYNAMICS) S.D.=  1.73003257260556E+01
DEBUG_STATS_RL:         GtNm1 (THERMODYNAMICS)  min= -4.16469961028637E-06
DEBUG_STATS_RL:         GtNm1 (THERMODYNAMICS)  max=  2.15202251370560E-06
DEBUG_STATS_RL:         GtNm1 (THERMODYNAMICS) mean=  2.31847178883995E-10
DEBUG_STATS_RL:         GtNm1 (THERMODYNAMICS) S.D.=  1.45419972966372E-07
DEBUG_STATS_RL:         GsNm1 (THERMODYNAMICS)  min= -4.06681916784498E-07
DEBUG_STATS_RL:         GsNm1 (THERMODYNAMICS)  max=  2.65401612462426E-07
DEBUG_STATS_RL:         GsNm1 (THERMODYNAMICS) mean=  1.87632981465708E-11
DEBUG_STATS_RL:         GsNm1 (THERMODYNAMICS) S.D.=  1.37857247386107E-08
DEBUG_STATS_RL:                EtaN (DYNAMICS)  min= -1.99783725775859E+00
DEBUG_STATS_RL:                EtaN (DYNAMICS)  max=  1.03806089142017E+00
DEBUG_STATS_RL:                EtaN (DYNAMICS) mean= -1.99524101019477E-01
DEBUG_STATS_RL:                EtaN (DYNAMICS) S.D.=  7.84787468914145E-01
DEBUG_STATS_RL:                Uvel (DYNAMICS)  min= -1.27615030932287E-01
DEBUG_STATS_RL:                Uvel (DYNAMICS)  max=  1.52154793928235E-01
DEBUG_STATS_RL:                Uvel (DYNAMICS) mean=  6.31260247555625E-03
DEBUG_STATS_RL:                Uvel (DYNAMICS) S.D.=  2.25377904725949E-02
DEBUG_STATS_RL:                Vvel (DYNAMICS)  min= -7.98890204532520E-02
DEBUG_STATS_RL:                Vvel (DYNAMICS)  max=  1.34196826235064E-01
DEBUG_STATS_RL:                Vvel (DYNAMICS) mean=  1.02816369994685E-03
DEBUG_STATS_RL:                Vvel (DYNAMICS) S.D.=  1.34993123844699E-02
DEBUG_STATS_RL:                Wvel (DYNAMICS)  min= -6.85331180342950E-05
DEBUG_STATS_RL:                Wvel (DYNAMICS)  max=  1.91483198356207E-04
DEBUG_STATS_RL:                Wvel (DYNAMICS) mean=  9.76784485706497E-09
DEBUG_STATS_RL:                Wvel (DYNAMICS) S.D.=  9.44286174443993E-06
DEBUG_STATS_RL:               Theta (DYNAMICS)  min= -1.94376611203658E+00
DEBUG_STATS_RL:               Theta (DYNAMICS)  max=  3.10440828377930E+01
DEBUG_STATS_RL:               Theta (DYNAMICS) mean=  3.23127234790586E+00
DEBUG_STATS_RL:               Theta (DYNAMICS) S.D.=  5.88689111918492E+00
DEBUG_STATS_RL:                Salt (DYNAMICS)  min=  9.99999999999997E-03
DEBUG_STATS_RL:                Salt (DYNAMICS)  max=  3.74728458444423E+01
DEBUG_STATS_RL:                Salt (DYNAMICS) mean=  1.88547772153238E+01
DEBUG_STATS_RL:                Salt (DYNAMICS) S.D.=  1.73003257260556E+01
DEBUG_STATS_RL:                  Gu (DYNAMICS)  min= -1.26812142134274E-01
DEBUG_STATS_RL:                  Gu (DYNAMICS)  max=  1.59370720383121E-01
DEBUG_STATS_RL:                  Gu (DYNAMICS) mean=  6.26894253332894E-03
DEBUG_STATS_RL:                  Gu (DYNAMICS) S.D.=  2.28792694047965E-02
DEBUG_STATS_RL:                  Gv (DYNAMICS)  min= -8.53302348895702E-02
DEBUG_STATS_RL:                  Gv (DYNAMICS)  max=  1.34139327314201E-01
DEBUG_STATS_RL:                  Gv (DYNAMICS) mean=  3.66779416581910E-03
DEBUG_STATS_RL:                  Gv (DYNAMICS) S.D.=  1.50379075511248E-02
DEBUG_STATS_RL:               GuNm1 (DYNAMICS)  min= -1.03407911536389E-05
DEBUG_STATS_RL:               GuNm1 (DYNAMICS)  max=  9.28498379721961E-06
DEBUG_STATS_RL:               GuNm1 (DYNAMICS) mean=  9.39608220261753E-09
DEBUG_STATS_RL:               GuNm1 (DYNAMICS) S.D.=  1.22180336072818E-06
DEBUG_STATS_RL:               GvNm1 (DYNAMICS)  min= -9.62022155845193E-06
DEBUG_STATS_RL:               GvNm1 (DYNAMICS)  max=  1.55263521981897E-05
DEBUG_STATS_RL:               GvNm1 (DYNAMICS) mean=  7.37444089330832E-07
DEBUG_STATS_RL:               GvNm1 (DYNAMICS) S.D.=  2.61511206619366E-06
DEBUG_STATS_RL:               GtNm1 (DYNAMICS)  min= -4.16469961028637E-06
DEBUG_STATS_RL:               GtNm1 (DYNAMICS)  max=  2.15202251370560E-06
DEBUG_STATS_RL:               GtNm1 (DYNAMICS) mean=  2.31847178883995E-10
DEBUG_STATS_RL:               GtNm1 (DYNAMICS) S.D.=  1.45419972966372E-07
DEBUG_STATS_RL:               GsNm1 (DYNAMICS)  min= -4.06681916784498E-07
DEBUG_STATS_RL:               GsNm1 (DYNAMICS)  max=  2.65401612462426E-07
DEBUG_STATS_RL:               GsNm1 (DYNAMICS) mean=  1.87632981465708E-11
DEBUG_STATS_RL:               GsNm1 (DYNAMICS) S.D.=  1.37857247386107E-08
DEBUG_STATS_RL:    cg2d_b (SOLVE_FOR_PRESSURE)  min= -2.59032881263265E+04
DEBUG_STATS_RL:    cg2d_b (SOLVE_FOR_PRESSURE)  max=  2.78123828524253E+04
DEBUG_STATS_RL:    cg2d_b (SOLVE_FOR_PRESSURE) mean=  5.29910929113730E+00
DEBUG_STATS_RL:    cg2d_b (SOLVE_FOR_PRESSURE) S.D.=  3.96331222467258E+03
 cg2d: Sum(rhs),rhsMax =   4.41078280637683E-01  1.82679177133625E+00
(PID.TID 0000.0001)  cg2d: iter=     1 ; resid.=  7.77303929185189E-02
(PID.TID 0000.0001)  cg2d: iter=     2 ; resid.=  5.07492802265863E-02
(PID.TID 0000.0001)  cg2d: iter=     3 ; resid.=  4.36903327947473E-02
(PID.TID 0000.0001)  cg2d: iter=     4 ; resid.=  4.36974886689698E-02
(PID.TID 0000.0001)  cg2d: iter=     5 ; resid.=  3.55394251275825E-02
(PID.TID 0000.0001)  cg2d: iter=     6 ; resid.=  2.79608330829673E-02
(PID.TID 0000.0001)  cg2d: iter=     7 ; resid.=  2.50800724818360E-02
(PID.TID 0000.0001)  cg2d: iter=     8 ; resid.=  2.26513664721663E-02
(PID.TID 0000.0001)  cg2d: iter=     9 ; resid.=  1.93404514042531E-02
(PID.TID 0000.0001)  cg2d: iter=    10 ; resid.=  1.61029533461702E-02
(PID.TID 0000.0001)  cg2d: iter=    11 ; resid.=  1.26602948900872E-02
(PID.TID 0000.0001)  cg2d: iter=    12 ; resid.=  1.04998552683065E-02
(PID.TID 0000.0001)  cg2d: iter=    13 ; resid.=  8.47193868324227E-03
(PID.TID 0000.0001)  cg2d: iter=    14 ; resid.=  6.96760505904100E-03
(PID.TID 0000.0001)  cg2d: iter=    15 ; resid.=  5.78272435097839E-03
(PID.TID 0000.0001)  cg2d: iter=    16 ; resid.=  4.37011423894691E-03
(PID.TID 0000.0001)  cg2d: iter=    17 ; resid.=  3.67044682071656E-03
(PID.TID 0000.0001)  cg2d: iter=    18 ; resid.=  3.27519725818875E-03
(PID.TID 0000.0001)  cg2d: iter=    19 ; resid.=  2.72500885313337E-03
(PID.TID 0000.0001)  cg2d: iter=    20 ; resid.=  2.34797646189490E-03
(PID.TID 0000.0001)  cg2d: iter=    21 ; resid.=  1.93945132112600E-03
(PID.TID 0000.0001)  cg2d: iter=    22 ; resid.=  1.77404045124164E-03
(PID.TID 0000.0001)  cg2d: iter=    23 ; resid.=  1.59324517861459E-03
(PID.TID 0000.0001)  cg2d: iter=    24 ; resid.=  1.22479679818287E-03
(PID.TID 0000.0001)  cg2d: iter=    25 ; resid.=  9.87412296607543E-04
(PID.TID 0000.0001)  cg2d: iter=    26 ; resid.=  7.67004661953438E-04
(PID.TID 0000.0001)  cg2d: iter=    27 ; resid.=  6.30496500954405E-04
(PID.TID 0000.0001)  cg2d: iter=    28 ; resid.=  5.37999649493011E-04
(PID.TID 0000.0001)  cg2d: iter=    29 ; resid.=  4.54094722174596E-04
(PID.TID 0000.0001)  cg2d: iter=    30 ; resid.=  3.68847640486462E-04
(PID.TID 0000.0001)  cg2d: iter=    31 ; resid.=  2.87315208270803E-04
(PID.TID 0000.0001)  cg2d: iter=    32 ; resid.=  2.14369270034438E-04
(PID.TID 0000.0001)  cg2d: iter=    33 ; resid.=  1.69211277766123E-04
(PID.TID 0000.0001)  cg2d: iter=    34 ; resid.=  1.39175062854298E-04
(PID.TID 0000.0001)  cg2d: iter=    35 ; resid.=  1.15264210338452E-04
(PID.TID 0000.0001)  cg2d: iter=    36 ; resid.=  9.69233769519134E-05
(PID.TID 0000.0001)  cg2d: iter=    37 ; resid.=  8.39960068679623E-05
(PID.TID 0000.0001)  cg2d: iter=    38 ; resid.=  7.06760976090104E-05
(PID.TID 0000.0001)  cg2d: iter=    39 ; resid.=  5.89441100492077E-05
(PID.TID 0000.0001)  cg2d: iter=    40 ; resid.=  4.95526177310332E-05
(PID.TID 0000.0001)  cg2d: iter=    41 ; resid.=  4.02104711507710E-05
(PID.TID 0000.0001)  cg2d: iter=    42 ; resid.=  3.37971554027364E-05
(PID.TID 0000.0001)  cg2d: iter=    43 ; resid.=  2.97042940606748E-05
(PID.TID 0000.0001)  cg2d: iter=    44 ; resid.=  2.74168339902154E-05
(PID.TID 0000.0001)  cg2d: iter=    45 ; resid.=  2.33900845977403E-05
(PID.TID 0000.0001)  cg2d: iter=    46 ; resid.=  1.89959053886057E-05
(PID.TID 0000.0001)  cg2d: iter=    47 ; resid.=  1.46935694074444E-05
(PID.TID 0000.0001)  cg2d: iter=    48 ; resid.=  1.27460775906145E-05
(PID.TID 0000.0001)  cg2d: iter=    49 ; resid.=  1.06977842791375E-05
(PID.TID 0000.0001)  cg2d: iter=    50 ; resid.=  8.47186869678960E-06
(PID.TID 0000.0001)  cg2d: iter=    51 ; resid.=  6.90586237629190E-06
(PID.TID 0000.0001)  cg2d: iter=    52 ; resid.=  5.98897061673969E-06
(PID.TID 0000.0001)  cg2d: iter=    53 ; resid.=  5.70943293692562E-06
(PID.TID 0000.0001)  cg2d: iter=    54 ; resid.=  5.01727506014784E-06
(PID.TID 0000.0001)  cg2d: iter=    55 ; resid.=  4.51898120564096E-06
(PID.TID 0000.0001)  cg2d: iter=    56 ; resid.=  3.81392724322820E-06
(PID.TID 0000.0001)  cg2d: iter=    57 ; resid.=  3.25588602710491E-06
(PID.TID 0000.0001)  cg2d: iter=    58 ; resid.=  2.50595940068262E-06
(PID.TID 0000.0001)  cg2d: iter=    59 ; resid.=  1.81201515885304E-06
(PID.TID 0000.0001)  cg2d: iter=    60 ; resid.=  1.45919248145276E-06
(PID.TID 0000.0001)  cg2d: iter=    61 ; resid.=  1.18418683665266E-06
(PID.TID 0000.0001)  cg2d: iter=    62 ; resid.=  9.29844374201124E-07
(PID.TID 0000.0001)  cg2d: iter=    63 ; resid.=  7.10639403522431E-07
(PID.TID 0000.0001)  cg2d: iter=    64 ; resid.=  5.47184620627817E-07
(PID.TID 0000.0001)  cg2d: iter=    65 ; resid.=  4.56516676517778E-07
(PID.TID 0000.0001)  cg2d: iter=    66 ; resid.=  3.73121243353661E-07
(PID.TID 0000.0001)  cg2d: iter=    67 ; resid.=  3.09487884176382E-07
(PID.TID 0000.0001)  cg2d: iter=    68 ; resid.=  2.60799868614888E-07
(PID.TID 0000.0001)  cg2d: iter=    69 ; resid.=  2.32651894437601E-07
(PID.TID 0000.0001)  cg2d: iter=    70 ; resid.=  2.04831218329272E-07
(PID.TID 0000.0001)  cg2d: iter=    71 ; resid.=  1.67507260798959E-07
(PID.TID 0000.0001)  cg2d: iter=    72 ; resid.=  1.48385316888277E-07
(PID.TID 0000.0001)  cg2d: iter=    73 ; resid.=  1.24654280020926E-07
(PID.TID 0000.0001)  cg2d: iter=    74 ; resid.=  1.04492822333487E-07
(PID.TID 0000.0001)  cg2d: iter=    75 ; resid.=  8.65068871953708E-08
(PID.TID 0000.0001)  cg2d: iter=    76 ; resid.=  7.07506409879226E-08
(PID.TID 0000.0001)  cg2d: iter=    77 ; resid.=  5.66540256260959E-08
(PID.TID 0000.0001)  cg2d: iter=    78 ; resid.=  4.54292435190817E-08
(PID.TID 0000.0001)  cg2d: iter=    79 ; resid.=  3.64452081396126E-08
(PID.TID 0000.0001)  cg2d: iter=    80 ; resid.=  2.98739866107398E-08
(PID.TID 0000.0001)  cg2d: iter=    81 ; resid.=  2.34053363510067E-08
(PID.TID 0000.0001)  cg2d: iter=    82 ; resid.=  1.69830853873740E-08
(PID.TID 0000.0001)  cg2d: iter=    83 ; resid.=  1.30708003259172E-08
(PID.TID 0000.0001)  cg2d: iter=    84 ; resid.=  1.07939221595619E-08
(PID.TID 0000.0001)  cg2d: iter=    85 ; resid.=  7.80134213356283E-09
(PID.TID 0000.0001)  cg2d: iter=    86 ; resid.=  5.35710996326942E-09
(PID.TID 0000.0001)  cg2d: iter=    87 ; resid.=  3.96521932104063E-09
(PID.TID 0000.0001)  cg2d: iter=    88 ; resid.=  3.00624883448889E-09
(PID.TID 0000.0001)  cg2d: iter=    89 ; resid.=  2.27009835884182E-09
(PID.TID 0000.0001)  cg2d: iter=    90 ; resid.=  1.84889445099192E-09
(PID.TID 0000.0001)  cg2d: iter=    91 ; resid.=  1.45964750902573E-09
(PID.TID 0000.0001)  cg2d: iter=    92 ; resid.=  1.29012821931236E-09
(PID.TID 0000.0001)  cg2d: iter=    93 ; resid.=  9.72301912202565E-10
(PID.TID 0000.0001)  cg2d: iter=    94 ; resid.=  7.50106355079802E-10
(PID.TID 0000.0001)  cg2d: iter=    95 ; resid.=  6.28810916464703E-10
(PID.TID 0000.0001)  cg2d: iter=    96 ; resid.=  5.04794471212427E-10
(PID.TID 0000.0001)  cg2d: iter=    97 ; resid.=  4.27188487519228E-10
(PID.TID 0000.0001)  cg2d: iter=    98 ; resid.=  3.50400992641907E-10
(PID.TID 0000.0001)  cg2d: iter=    99 ; resid.=  3.09195090377987E-10
(PID.TID 0000.0001)  cg2d: iter=   100 ; resid.=  2.53340077366390E-10
(PID.TID 0000.0001)  cg2d: iter=   101 ; resid.=  1.94916123276696E-10
(PID.TID 0000.0001)  cg2d: iter=   102 ; resid.=  1.53905235945719E-10
(PID.TID 0000.0001)  cg2d: iter=   103 ; resid.=  1.20802249016687E-10
(PID.TID 0000.0001)  cg2d: iter=   104 ; resid.=  9.65492071642454E-11
(PID.TID 0000.0001)  cg2d: iter=   105 ; resid.=  8.16894007310036E-11
(PID.TID 0000.0001)  cg2d: iter=   106 ; resid.=  6.65335820177481E-11
(PID.TID 0000.0001)  cg2d: iter=   107 ; resid.=  4.98507101591845E-11
(PID.TID 0000.0001)  cg2d: iter=   108 ; resid.=  4.28720135726277E-11
(PID.TID 0000.0001)  cg2d: iter=   109 ; resid.=  3.42309027461579E-11
(PID.TID 0000.0001)  cg2d: iter=   110 ; resid.=  2.64230982141703E-11
(PID.TID 0000.0001)  cg2d: iter=   111 ; resid.=  2.22763344236439E-11
(PID.TID 0000.0001)  cg2d: iter=   112 ; resid.=  1.73238135874351E-11
(PID.TID 0000.0001)  cg2d: iter=   113 ; resid.=  1.29933635249228E-11
(PID.TID 0000.0001)  cg2d: iter=   114 ; resid.=  9.91789453947985E-12
(PID.TID 0000.0001)  cg2d: iter=   115 ; resid.=  7.28198456439900E-12
(PID.TID 0000.0001)  cg2d: iter=   116 ; resid.=  5.29030002064782E-12
(PID.TID 0000.0001)  cg2d: iter=   117 ; resid.=  3.94092022912843E-12
(PID.TID 0000.0001)  cg2d: iter=   118 ; resid.=  2.97389865416596E-12
(PID.TID 0000.0001)  cg2d: iter=   119 ; resid.=  2.24395572347953E-12
(PID.TID 0000.0001)  cg2d: iter=   120 ; resid.=  1.62438608290624E-12
(PID.TID 0000.0001)  cg2d: iter=   121 ; resid.=  1.18206667258753E-12
(PID.TID 0000.0001)  cg2d: iter=   122 ; resid.=  9.64283963717220E-13
(PID.TID 0000.0001)  cg2d: iter=   123 ; resid.=  7.91718249219040E-13
(PID.TID 0000.0001)  cg2d: iter=   124 ; resid.=  6.52732633281110E-13
(PID.TID 0000.0001)  cg2d: iter=   125 ; resid.=  5.24119531039833E-13
(PID.TID 0000.0001)  cg2d: iter=   126 ; resid.=  4.05245092971617E-13
(PID.TID 0000.0001)  cg2d: iter=   127 ; resid.=  2.95358503954651E-13
(PID.TID 0000.0001)  cg2d: iter=   128 ; resid.=  1.95151379716992E-13
(PID.TID 0000.0001)  cg2d: iter=   129 ; resid.=  1.14789641824106E-13
(PID.TID 0000.0001)  cg2d: iter=   130 ; resid.=  7.52758743294515E-14
DEBUG_STATS_RL:    cg2d_x (SOLVE_FOR_PRESSURE)  min= -1.95441181092201E+01
DEBUG_STATS_RL:    cg2d_x (SOLVE_FOR_PRESSURE)  max=  1.00923653482854E+01
DEBUG_STATS_RL:    cg2d_x (SOLVE_FOR_PRESSURE) mean= -1.95399997203092E+00
DEBUG_STATS_RL:    cg2d_x (SOLVE_FOR_PRESSURE) S.D.=  7.65463649043786E+00
(PID.TID 0000.0001)      cg2d_init_res =   2.17048150139740E-01
(PID.TID 0000.0001)      cg2d_iters(min,last) =      -1     130
(PID.TID 0000.0001)      cg2d_last_res =   7.52758743294515E-14
(PID.TID 0000.0001) // =======================================================
(PID.TID 0000.0001) // Begin MONITOR dynamic field statistics
(PID.TID 0000.0001) // =======================================================
(PID.TID 0000.0001) %MON time_tsnumber                =                    81
(PID.TID 0000.0001) %MON time_secondsf                =   6.9984000000000E+06
(PID.TID 0000.0001) %MON dynstat_eta_max              =   1.0287834198048E+00
(PID.TID 0000.0001) %MON dynstat_eta_min              =  -1.9922648429378E+00
(PID.TID 0000.0001) %MON dynstat_eta_mean             =  -5.5289634774426E-03
(PID.TID 0000.0001) %MON dynstat_eta_sd               =   6.8367024755404E-01
(PID.TID 0000.0001) %MON dynstat_eta_del2             =   2.4869900956540E-03
(PID.TID 0000.0001) %MON dynstat_uvel_max             =   1.5475708247296E-01
(PID.TID 0000.0001) %MON dynstat_uvel_min             =  -1.2892608727155E-01
(PID.TID 0000.0001) %MON dynstat_uvel_mean            =   2.5278132170229E-03
(PID.TID 0000.0001) %MON dynstat_uvel_sd              =   1.4532051712898E-02
(PID.TID 0000.0001) %MON dynstat_uvel_del2            =   9.1349844890794E-05
(PID.TID 0000.0001) %MON dynstat_vvel_max             =   1.3084356714964E-01
(PID.TID 0000.0001) %MON dynstat_vvel_min             =  -8.1529849615267E-02
(PID.TID 0000.0001) %MON dynstat_vvel_mean            =  -1.2071942489455E-05
(PID.TID 0000.0001) %MON dynstat_vvel_sd              =   8.2881405211972E-03
(PID.TID 0000.0001) %MON dynstat_vvel_del2            =   7.4751119623603E-05
(PID.TID 0000.0001) %MON dynstat_wvel_max             =   1.9217786766782E-04
(PID.TID 0000.0001) %MON dynstat_wvel_min             =  -6.7584509991398E-05
(PID.TID 0000.0001) %MON dynstat_wvel_mean            =   3.0081774361414E-23
(PID.TID 0000.0001) %MON dynstat_wvel_sd              =   1.0518335260218E-05
(PID.TID 0000.0001) %MON dynstat_wvel_del2            =   1.0512691660426E-07
(PID.TID 0000.0001) %MON dynstat_theta_max            =   3.1044082837793E+01
(PID.TID 0000.0001) %MON dynstat_theta_min            =  -1.9437661120366E+00
(PID.TID 0000.0001) %MON dynstat_theta_mean           =   3.6340966513293E+00
(PID.TID 0000.0001) %MON dynstat_theta_sd             =   4.4276725594703E+00
(PID.TID 0000.0001) %MON dynstat_theta_del2           =   4.8457685279860E-03
(PID.TID 0000.0001) %MON dynstat_salt_max             =   3.7472845844442E+01
(PID.TID 0000.0001) %MON dynstat_salt_min             =   2.9923156568114E+01
(PID.TID 0000.0001) %MON dynstat_salt_mean            =   3.4728013220806E+01
(PID.TID 0000.0001) %MON dynstat_salt_sd              =   2.9660975436254E-01
(PID.TID 0000.0001) %MON dynstat_salt_del2            =   9.9386582236972E-04
(PID.TID 0000.0001) %MON dynstat_sst_max              =   3.1044082837793E+01
(PID.TID 0000.0001) %MON dynstat_sst_min              =  -1.9437661120366E+00
(PID.TID 0000.0001) %MON dynstat_sst_mean             =   1.9068784766800E+01
(PID.TID 0000.0001) %MON dynstat_sst_sd               =   9.1863568212122E+00
(PID.TID 0000.0001) %MON dynstat_sst_del2             =   2.8914312244276E-02
(PID.TID 0000.0001) %MON dynstat_sss_max              =   3.7470432658184E+01
(PID.TID 0000.0001) %MON dynstat_sss_min              =   2.9923156568114E+01
(PID.TID 0000.0001) %MON dynstat_sss_mean             =   3.4847883490920E+01
(PID.TID 0000.0001) %MON dynstat_sss_sd               =   9.8718628846297E-01
(PID.TID 0000.0001) %MON dynstat_sss_del2             =   8.2061631898738E-03
(PID.TID 0000.0001) %MON forcing_qnet_max             =   2.5098151652018E+02
(PID.TID 0000.0001) %MON forcing_qnet_min             =  -1.6171560923258E+02
(PID.TID 0000.0001) %MON forcing_qnet_mean            =  -5.2798838452964E+00
(PID.TID 0000.0001) %MON forcing_qnet_sd              =   4.2422430545569E+01
(PID.TID 0000.0001) %MON forcing_qnet_del2            =   8.1785036435017E-01
(PID.TID 0000.0001) %MON forcing_qsw_max              =   0.0000000000000E+00
(PID.TID 0000.0001) %MON forcing_qsw_min              =   0.0000000000000E+00
(PID.TID 0000.0001) %MON forcing_qsw_mean             =   0.0000000000000E+00
(PID.TID 0000.0001) %MON forcing_qsw_sd               =   0.0000000000000E+00
(PID.TID 0000.0001) %MON forcing_qsw_del2             =   0.0000000000000E+00
(PID.TID 0000.0001) %MON forcing_empmr_max            =   6.8627966716880E-05
(PID.TID 0000.0001) %MON forcing_empmr_min            =  -8.3338647982600E-05
(PID.TID 0000.0001) %MON forcing_empmr_mean           =   4.3848422954086E-07
(PID.TID 0000.0001) %MON forcing_empmr_sd             =   2.5959291357545E-05
(PID.TID 0000.0001) %MON forcing_empmr_del2           =   3.6379540965220E-07
(PID.TID 0000.0001) %MON forcing_fu_max               =   3.5326997439067E-01
(PID.TID 0000.0001) %MON forcing_fu_min               =  -3.9322178065777E-01
(PID.TID 0000.0001) %MON forcing_fu_mean              =   1.9820768815724E-02
(PID.TID 0000.0001) %MON forcing_fu_sd                =   1.0094744547946E-01
(PID.TID 0000.0001) %MON forcing_fu_del2              =   8.0814335674264E-04
(PID.TID 0000.0001) %MON forcing_fv_max               =   1.8282033999761E-01
(PID.TID 0000.0001) %MON forcing_fv_min               =  -1.7629306515058E-01
(PID.TID 0000.0001) %MON forcing_fv_mean              =  -7.3471920781794E-03
(PID.TID 0000.0001) %MON forcing_fv_sd                =   4.0771862552171E-02
(PID.TID 0000.0001) %MON forcing_fv_del2              =   4.6338645656999E-04
(PID.TID 0000.0001) %MON trAdv_CFL_u_max              =   4.0839739507629E-02
(PID.TID 0000.0001) %MON trAdv_CFL_v_max              =   2.5966045985036E-02
(PID.TID 0000.0001) %MON trAdv_CFL_w_max              =   4.2420893174298E-02
(PID.TID 0000.0001) %MON advcfl_uvel_max              =   4.0471110304671E-02
(PID.TID 0000.0001) %MON advcfl_vvel_max              =   2.5420806618649E-02
(PID.TID 0000.0001) %MON advcfl_wvel_max              =   4.5490870593150E-02
(PID.TID 0000.0001) %MON advcfl_W_hf_max              =   4.8835787548529E-02
(PID.TID 0000.0001) %MON pe_b_mean                    =   5.9814016188437E-04
(PID.TID 0000.0001) %MON ke_max                       =   1.2513280173813E-02
(PID.TID 0000.0001) %MON ke_mean                      =   1.2968499713686E-04
(PID.TID 0000.0001) %MON ke_vol                       =   1.3226782436723E+18
(PID.TID 0000.0001) %MON vort_r_min                   =  -3.7973709622730E-07
(PID.TID 0000.0001) %MON vort_r_max                   =   3.9317415400482E-07
(PID.TID 0000.0001) %MON vort_a_mean                  =  -2.5274806930150E-05
(PID.TID 0000.0001) %MON vort_a_sd                    =   7.3604676502596E-05
(PID.TID 0000.0001) %MON vort_p_mean                  =  -3.1845655210683E-05
(PID.TID 0000.0001) %MON vort_p_sd                    =   1.3162514476716E-04
(PID.TID 0000.0001) %MON surfExpan_theta_mean         =  -7.0073370239841E-08
(PID.TID 0000.0001) %MON surfExpan_salt_mean          =   5.5338240982070E-08
(PID.TID 0000.0001) // =======================================================
(PID.TID 0000.0001) // End MONITOR dynamic field statistics
(PID.TID 0000.0001) // =======================================================
 EXTERNAL_FIELDS_LOAD,        81 : iP,iLd,i0,i1=    3    4    3    4 ; Wght=  0.8000000000  0.2000000000
 EXTERNAL_FIELDS_LOAD: (fu0,1),fu,fv= -2.7199E-02 -3.7252E-02 -2.9210E-02 -7.5057E-03
 EXTERNAL_FIELDS_LOAD: SST,SSS,Q,E-P= -1.4006E-01  3.4577E+01  1.9314E+02  8.8184E-06
DEBUG_STATS_RL:          Uvel (THERMODYNAMICS)  min= -1.28926087271554E-01
DEBUG_STATS_RL:          Uvel (THERMODYNAMICS)  max=  1.54757082472963E-01
DEBUG_STATS_RL:          Uvel (THERMODYNAMICS) mean=  6.29742420893011E-03
DEBUG_STATS_RL:          Uvel (THERMODYNAMICS) S.D.=  2.24758285160613E-02
DEBUG_STATS_RL:          Vvel (THERMODYNAMICS)  min= -8.15298496152665E-02
DEBUG_STATS_RL:          Vvel (THERMODYNAMICS)  max=  1.30843567149638E-01
DEBUG_STATS_RL:          Vvel (THERMODYNAMICS) mean=  1.05307480983664E-03
DEBUG_STATS_RL:          Vvel (THERMODYNAMICS) S.D.=  1.34610251606067E-02
DEBUG_STATS_RL:          Wvel (THERMODYNAMICS)  min= -6.75845099913976E-05
DEBUG_STATS_RL:          Wvel (THERMODYNAMICS)  max=  1.92177867667821E-04
DEBUG_STATS_RL:          Wvel (THERMODYNAMICS) mean=  1.12341974461525E-08
DEBUG_STATS_RL:          Wvel (THERMODYNAMICS) S.D.=  9.37554944272216E-06
DEBUG_STATS_RL:         Theta (THERMODYNAMICS)  min= -1.94264576880393E+00
DEBUG_STATS_RL:         Theta (THERMODYNAMICS)  max=  3.10655822976302E+01
DEBUG_STATS_RL:         Theta (THERMODYNAMICS) mean=  3.23122532088465E+00
DEBUG_STATS_RL:         Theta (THERMODYNAMICS) S.D.=  5.88723173243716E+00
DEBUG_STATS_RL:          Salt (THERMODYNAMICS)  min=  9.99999999999997E-03
DEBUG_STATS_RL:          Salt (THERMODYNAMICS)  max=  3.74725851416279E+01
DEBUG_STATS_RL:          Salt (THERMODYNAMICS) mean=  1.88547795522684E+01
DEBUG_STATS_RL:          Salt (THERMODYNAMICS) S.D.=  1.73003286525104E+01
DEBUG_STATS_RL:         GtNm1 (THERMODYNAMICS)  min= -4.02436877750006E-06
DEBUG_STATS_RL:         GtNm1 (THERMODYNAMICS)  max=  2.06529866260859E-06
DEBUG_STATS_RL:         GtNm1 (THERMODYNAMICS) mean= -2.40302037528614E-11
DEBUG_STATS_RL:         GtNm1 (THERMODYNAMICS) S.D.=  1.45222962702567E-07
DEBUG_STATS_RL:         GsNm1 (THERMODYNAMICS)  min= -4.58686041859561E-07
DEBUG_STATS_RL:         GsNm1 (THERMODYNAMICS)  max=  3.04009686571084E-07
DEBUG_STATS_RL:         GsNm1 (THERMODYNAMICS) mean= -4.02967047841118E-12
DEBUG_STATS_RL:         GsNm1 (THERMODYNAMICS) S.D.=  1.40057477369642E-08
DEBUG_STATS_RL:                EtaN (DYNAMICS)  min= -1.99226484293780E+00
DEBUG_STATS_RL:                EtaN (DYNAMICS)  max=  1.02878341980482E+00
DEBUG_STATS_RL:                EtaN (DYNAMICS) mean= -1.99184502755445E-01
DEBUG_STATS_RL:                EtaN (DYNAMICS) S.D.=  7.80289142756154E-01
DEBUG_STATS_RL:                Uvel (DYNAMICS)  min= -1.28926087271554E-01
DEBUG_STATS_RL:                Uvel (DYNAMICS)  max=  1.54757082472963E-01
DEBUG_STATS_RL:                Uvel (DYNAMICS) mean=  6.29742420893011E-03
DEBUG_STATS_RL:                Uvel (DYNAMICS) S.D.=  2.24758285160613E-02
DEBUG_STATS_RL:                Vvel (DYNAMICS)  min= -8.15298496152665E-02
DEBUG_STATS_RL:                Vvel (DYNAMICS)  max=  1.30843567149638E-01
DEBUG_STATS_RL:                Vvel (DYNAMICS) mean=  1.05307480983664E-03
DEBUG_STATS_RL:                Vvel (DYNAMICS) S.D.=  1.34610251606067E-02
DEBUG_STATS_RL:                Wvel (DYNAMICS)  min= -6.75845099913976E-05
DEBUG_STATS_RL:                Wvel (DYNAMICS)  max=  1.92177867667821E-04
DEBUG_STATS_RL:                Wvel (DYNAMICS) mean=  1.12341974461525E-08
DEBUG_STATS_RL:                Wvel (DYNAMICS) S.D.=  9.37554944272216E-06
DEBUG_STATS_RL:               Theta (DYNAMICS)  min= -1.94264576880393E+00
DEBUG_STATS_RL:               Theta (DYNAMICS)  max=  3.10655822976302E+01
DEBUG_STATS_RL:               Theta (DYNAMICS) mean=  3.23122532088465E+00
DEBUG_STATS_RL:               Theta (DYNAMICS) S.D.=  5.88723173243716E+00
DEBUG_STATS_RL:                Salt (DYNAMICS)  min=  9.99999999999997E-03
DEBUG_STATS_RL:                Salt (DYNAMICS)  max=  3.74725851416279E+01
DEBUG_STATS_RL:                Salt (DYNAMICS) mean=  1.88547795522684E+01
DEBUG_STATS_RL:                Salt (DYNAMICS) S.D.=  1.73003286525104E+01
DEBUG_STATS_RL:                  Gu (DYNAMICS)  min= -1.28096641032512E-01
DEBUG_STATS_RL:                  Gu (DYNAMICS)  max=  1.61762738077467E-01
DEBUG_STATS_RL:                  Gu (DYNAMICS) mean=  6.25106952062472E-03
DEBUG_STATS_RL:                  Gu (DYNAMICS) S.D.=  2.28091833037445E-02
DEBUG_STATS_RL:                  Gv (DYNAMICS)  min= -8.78520231502043E-02
DEBUG_STATS_RL:                  Gv (DYNAMICS)  max=  1.30766604875137E-01
DEBUG_STATS_RL:                  Gv (DYNAMICS) mean=  3.67263195439985E-03
DEBUG_STATS_RL:                  Gv (DYNAMICS) S.D.=  1.50122587787803E-02
DEBUG_STATS_RL:               GuNm1 (DYNAMICS)  min= -1.03075833699881E-05
DEBUG_STATS_RL:               GuNm1 (DYNAMICS)  max=  9.27096871312891E-06
DEBUG_STATS_RL:               GuNm1 (DYNAMICS) mean=  9.75217814623187E-09
DEBUG_STATS_RL:               GuNm1 (DYNAMICS) S.D.=  1.22227035388342E-06
DEBUG_STATS_RL:               GvNm1 (DYNAMICS)  min= -9.56274798126165E-06
DEBUG_STATS_RL:               GvNm1 (DYNAMICS)  max=  1.55028340238376E-05
DEBUG_STATS_RL:               GvNm1 (DYNAMICS) mean=  7.37455394503840E-07
DEBUG_STATS_RL:               GvNm1 (DYNAMICS) S.D.=  2.61379233778266E-06
DEBUG_STATS_RL:               GtNm1 (DYNAMICS)  min= -4.02436877750006E-06
DEBUG_STATS_RL:               GtNm1 (DYNAMICS)  max=  2.06529866260859E-06
DEBUG_STATS_RL:               GtNm1 (DYNAMICS) mean= -2.40302037528614E-11
DEBUG_STATS_RL:               GtNm1 (DYNAMICS) S.D.=  1.45222962702567E-07
DEBUG_STATS_RL:               GsNm1 (DYNAMICS)  min= -4.58686041859561E-07
DEBUG_STATS_RL:               GsNm1 (DYNAMICS)  max=  3.04009686571084E-07
DEBUG_STATS_RL:               GsNm1 (DYNAMICS) mean= -4.02967047841118E-12
DEBUG_STATS_RL:               GsNm1 (DYNAMICS) S.D.=  1.40057477369642E-08
DEBUG_STATS_RL:    cg2d_b (SOLVE_FOR_PRESSURE)  min= -2.64746663836377E+04
DEBUG_STATS_RL:    cg2d_b (SOLVE_FOR_PRESSURE)  max=  2.82587187342217E+04
DEBUG_STATS_RL:    cg2d_b (SOLVE_FOR_PRESSURE) mean=  5.33239566224891E+00
DEBUG_STATS_RL:    cg2d_b (SOLVE_FOR_PRESSURE) S.D.=  3.96740587199190E+03
 cg2d: Sum(rhs),rhsMax =   4.36838487767547E-01  1.85610830708380E+00
(PID.TID 0000.0001)  cg2d: iter=     1 ; resid.=  7.67108625226594E-02
(PID.TID 0000.0001)  cg2d: iter=     2 ; resid.=  5.26043609338469E-02
(PID.TID 0000.0001)  cg2d: iter=     3 ; resid.=  4.77616295862810E-02
(PID.TID 0000.0001)  cg2d: iter=     4 ; resid.=  4.83870221770039E-02
(PID.TID 0000.0001)  cg2d: iter=     5 ; resid.=  3.98363511660489E-02
(PID.TID 0000.0001)  cg2d: iter=     6 ; resid.=  3.24581425800670E-02
(PID.TID 0000.0001)  cg2d: iter=     7 ; resid.=  2.97837068243495E-02
(PID.TID 0000.0001)  cg2d: iter=     8 ; resid.=  2.62397503819256E-02
(PID.TID 0000.0001)  cg2d: iter=     9 ; resid.=  2.10556799234590E-02
(PID.TID 0000.0001)  cg2d: iter=    10 ; resid.=  1.69577479941901E-02
(PID.TID 0000.0001)  cg2d: iter=    11 ; resid.=  1.32833694751518E-02
(PID.TID 0000.0001)  cg2d: iter=    12 ; resid.=  1.10228157743118E-02
(PID.TID 0000.0001)  cg2d: iter=    13 ; resid.=  9.00974002092152E-03
(PID.TID 0000.0001)  cg2d: iter=    14 ; resid.=  7.33043465379732E-03
(PID.TID 0000.0001)  cg2d: iter=    15 ; resid.=  6.05182419556238E-03
(PID.TID 0000.0001)  cg2d: iter=    16 ; resid.=  4.67045663433466E-03
(PID.TID 0000.0001)  cg2d: iter=    17 ; resid.=  4.08686270006984E-03
(PID.TID 0000.0001)  cg2d: iter=    18 ; resid.=  3.69281529396559E-03
(PID.TID 0000.0001)  cg2d: iter=    19 ; resid.=  3.00901096552753E-03
(PID.TID 0000.0001)  cg2d: iter=    20 ; resid.=  2.58713526817389E-03
(PID.TID 0000.0001)  cg2d: iter=    21 ; resid.=  2.15778210719945E-03
(PID.TID 0000.0001)  cg2d: iter=    22 ; resid.=  1.97949171048593E-03
(PID.TID 0000.0001)  cg2d: iter=    23 ; resid.=  1.73540566545412E-03
(PID.TID 0000.0001)  cg2d: iter=    24 ; resid.=  1.31267043741654E-03
(PID.TID 0000.0001)  cg2d: iter=    25 ; resid.=  1.05039985746658E-03
(PID.TID 0000.0001)  cg2d: iter=    26 ; resid.=  8.01360673775944E-04
(PID.TID 0000.0001)  cg2d: iter=    27 ; resid.=  6.57836340211736E-04
(PID.TID 0000.0001)  cg2d: iter=    28 ; resid.=  5.58537565248087E-04
(PID.TID 0000.0001)  cg2d: iter=    29 ; resid.=  4.70744144438949E-04
(PID.TID 0000.0001)  cg2d: iter=    30 ; resid.=  3.78681186679891E-04
(PID.TID 0000.0001)  cg2d: iter=    31 ; resid.=  2.91927977865078E-04
(PID.TID 0000.0001)  cg2d: iter=    32 ; resid.=  2.18157874017102E-04
(PID.TID 0000.0001)  cg2d: iter=    33 ; resid.=  1.70061047390822E-04
(PID.TID 0000.0001)  cg2d: iter=    34 ; resid.=  1.40106116313164E-04
(PID.TID 0000.0001)  cg2d: iter=    35 ; resid.=  1.17613188774544E-04
(PID.TID 0000.0001)  cg2d: iter=    36 ; resid.=  9.88547491916760E-05
(PID.TID 0000.0001)  cg2d: iter=    37 ; resid.=  8.64881628209053E-05
(PID.TID 0000.0001)  cg2d: iter=    38 ; resid.=  7.27342795086000E-05
(PID.TID 0000.0001)  cg2d: iter=    39 ; resid.=  6.07933852861880E-05
(PID.TID 0000.0001)  cg2d: iter=    40 ; resid.=  5.10046028001341E-05
(PID.TID 0000.0001)  cg2d: iter=    41 ; resid.=  4.04303451708158E-05
(PID.TID 0000.0001)  cg2d: iter=    42 ; resid.=  3.28417456758323E-05
(PID.TID 0000.0001)  cg2d: iter=    43 ; resid.=  2.81289553479436E-05
(PID.TID 0000.0001)  cg2d: iter=    44 ; resid.=  2.56251143628762E-05
(PID.TID 0000.0001)  cg2d: iter=    45 ; resid.=  2.19188332680226E-05
(PID.TID 0000.0001)  cg2d: iter=    46 ; resid.=  1.74972374957147E-05
(PID.TID 0000.0001)  cg2d: iter=    47 ; resid.=  1.31524237354387E-05
(PID.TID 0000.0001)  cg2d: iter=    48 ; resid.=  1.10948013909959E-05
(PID.TID 0000.0001)  cg2d: iter=    49 ; resid.=  9.29553880223742E-06
(PID.TID 0000.0001)  cg2d: iter=    50 ; resid.=  7.47918237007158E-06
(PID.TID 0000.0001)  cg2d: iter=    51 ; resid.=  6.17052673677945E-06
(PID.TID 0000.0001)  cg2d: iter=    52 ; resid.=  5.36109991440209E-06
(PID.TID 0000.0001)  cg2d: iter=    53 ; resid.=  5.17126178308638E-06
(PID.TID 0000.0001)  cg2d: iter=    54 ; resid.=  4.60285980009573E-06
(PID.TID 0000.0001)  cg2d: iter=    55 ; resid.=  4.22235655501076E-06
(PID.TID 0000.0001)  cg2d: iter=    56 ; resid.=  3.59615608370175E-06
(PID.TID 0000.0001)  cg2d: iter=    57 ; resid.=  3.01829709939761E-06
(PID.TID 0000.0001)  cg2d: iter=    58 ; resid.=  2.34799287207306E-06
(PID.TID 0000.0001)  cg2d: iter=    59 ; resid.=  1.68469191593575E-06
(PID.TID 0000.0001)  cg2d: iter=    60 ; resid.=  1.39589780288345E-06
(PID.TID 0000.0001)  cg2d: iter=    61 ; resid.=  1.15589474362547E-06
(PID.TID 0000.0001)  cg2d: iter=    62 ; resid.=  9.33308396639621E-07
(PID.TID 0000.0001)  cg2d: iter=    63 ; resid.=  7.25885879965559E-07
(PID.TID 0000.0001)  cg2d: iter=    64 ; resid.=  5.69419172274655E-07
(PID.TID 0000.0001)  cg2d: iter=    65 ; resid.=  4.92118792760712E-07
(PID.TID 0000.0001)  cg2d: iter=    66 ; resid.=  4.09436043984938E-07
(PID.TID 0000.0001)  cg2d: iter=    67 ; resid.=  3.39189313780413E-07
(PID.TID 0000.0001)  cg2d: iter=    68 ; resid.=  2.93075357668964E-07
(PID.TID 0000.0001)  cg2d: iter=    69 ; resid.=  2.66512057478387E-07
(PID.TID 0000.0001)  cg2d: iter=    70 ; resid.=  2.35925210069035E-07
(PID.TID 0000.0001)  cg2d: iter=    71 ; resid.=  1.89906465193310E-07
(PID.TID 0000.0001)  cg2d: iter=    72 ; resid.=  1.65180518018825E-07
(PID.TID 0000.0001)  cg2d: iter=    73 ; resid.=  1.37414998471586E-07
(PID.TID 0000.0001)  cg2d: iter=    74 ; resid.=  1.15629066649094E-07
(PID.TID 0000.0001)  cg2d: iter=    75 ; resid.=  9.58311151186825E-08
(PID.TID 0000.0001)  cg2d: iter=    76 ; resid.=  7.93190963776340E-08
(PID.TID 0000.0001)  cg2d: iter=    77 ; resid.=  6.28009862762964E-08
(PID.TID 0000.0001)  cg2d: iter=    78 ; resid.=  5.14406118823678E-08
(PID.TID 0000.0001)  cg2d: iter=    79 ; resid.=  4.05672103886217E-08
(PID.TID 0000.0001)  cg2d: iter=    80 ; resid.=  3.27317582375979E-08
(PID.TID 0000.0001)  cg2d: iter=    81 ; resid.=  2.47062830791399E-08
(PID.TID 0000.0001)  cg2d: iter=    82 ; resid.=  1.73556786233947E-08
(PID.TID 0000.0001)  cg2d: iter=    83 ; resid.=  1.32622056554748E-08
(PID.TID 0000.0001)  cg2d: iter=    84 ; resid.=  1.10216510531997E-08
(PID.TID 0000.0001)  cg2d: iter=    85 ; resid.=  8.02656258921944E-09
(PID.TID 0000.0001)  cg2d: iter=    86 ; resid.=  5.55685556061684E-09
(PID.TID 0000.0001)  cg2d: iter=    87 ; resid.=  4.14766916896674E-09
(PID.TID 0000.0001)  cg2d: iter=    88 ; resid.=  3.23994790777954E-09
(PID.TID 0000.0001)  cg2d: iter=    89 ; resid.=  2.50822294405072E-09
(PID.TID 0000.0001)  cg2d: iter=    90 ; resid.=  2.08113251886046E-09
(PID.TID 0000.0001)  cg2d: iter=    91 ; resid.=  1.69339541217104E-09
(PID.TID 0000.0001)  cg2d: iter=    92 ; resid.=  1.56651525398750E-09
(PID.TID 0000.0001)  cg2d: iter=    93 ; resid.=  1.22320487719381E-09
(PID.TID 0000.0001)  cg2d: iter=    94 ; resid.=  9.71016661924380E-10
(PID.TID 0000.0001)  cg2d: iter=    95 ; resid.=  8.40696138458859E-10
(PID.TID 0000.0001)  cg2d: iter=    96 ; resid.=  6.83581260325645E-10
(PID.TID 0000.0001)  cg2d: iter=    97 ; resid.=  5.69944083818276E-10
(PID.TID 0000.0001)  cg2d: iter=    98 ; resid.=  4.58537176067512E-10
(PID.TID 0000.0001)  cg2d: iter=    99 ; resid.=  3.98628601124054E-10
(PID.TID 0000.0001)  cg2d: iter=   100 ; resid.=  3.16165615990534E-10
(PID.TID 0000.0001)  cg2d: iter=   101 ; resid.=  2.38796666858975E-10
(PID.TID 0000.0001)  cg2d: iter=   102 ; resid.=  1.85588421745403E-10
(PID.TID 0000.0001)  cg2d: iter=   103 ; resid.=  1.39100549898038E-10
(PID.TID 0000.0001)  cg2d: iter=   104 ; resid.=  1.10427146348433E-10
(PID.TID 0000.0001)  cg2d: iter=   105 ; resid.=  9.19294848095700E-11
(PID.TID 0000.0001)  cg2d: iter=   106 ; resid.=  7.42679522032304E-11
(PID.TID 0000.0001)  cg2d: iter=   107 ; resid.=  5.44794488179154E-11
(PID.TID 0000.0001)  cg2d: iter=   108 ; resid.=  4.49081805026568E-11
(PID.TID 0000.0001)  cg2d: iter=   109 ; resid.=  3.49074508037186E-11
(PID.TID 0000.0001)  cg2d: iter=   110 ; resid.=  2.68211139106220E-11
(PID.TID 0000.0001)  cg2d: iter=   111 ; resid.=  2.22542980461388E-11
(PID.TID 0000.0001)  cg2d: iter=   112 ; resid.=  1.68652546099947E-11
(PID.TID 0000.0001)  cg2d: iter=   113 ; resid.=  1.21049127294215E-11
(PID.TID 0000.0001)  cg2d: iter=   114 ; resid.=  9.03527560215802E-12
(PID.TID 0000.0001)  cg2d: iter=   115 ; resid.=  6.66201944502641E-12
(PID.TID 0000.0001)  cg2d: iter=   116 ; resid.=  4.91091200754634E-12
(PID.TID 0000.0001)  cg2d: iter=   117 ; resid.=  3.70490060825114E-12
(PID.TID 0000.0001)  cg2d: iter=   118 ; resid.=  2.75658983243626E-12
(PID.TID 0000.0001)  cg2d: iter=   119 ; resid.=  2.07323112944173E-12
(PID.TID 0000.0001)  cg2d: iter=   120 ; resid.=  1.56582451569659E-12
(PID.TID 0000.0001)  cg2d: iter=   121 ; resid.=  1.16616997846782E-12
(PID.TID 0000.0001)  cg2d: iter=   122 ; resid.=  9.67860451823540E-13
(PID.TID 0000.0001)  cg2d: iter=   123 ; resid.=  7.86029636969245E-13
(PID.TID 0000.0001)  cg2d: iter=   124 ; resid.=  6.45426159995902E-13
(PID.TID 0000.0001)  cg2d: iter=   125 ; resid.=  5.25992410993764E-13
(PID.TID 0000.0001)  cg2d: iter=   126 ; resid.=  4.10043386110986E-13
(PID.TID 0000.0001)  cg2d: iter=   127 ; resid.=  2.97516569749437E-13
(PID.TID 0000.0001)  cg2d: iter=   128 ; resid.=  1.97612328106925E-13
(PID.TID 0000.0001)  cg2d: iter=   129 ; resid.=  1.15419301025028E-13
(PID.TID 0000.0001)  cg2d: iter=   130 ; resid.=  7.51610821726022E-14
DEBUG_STATS_RL:    cg2d_x (SOLVE_FOR_PRESSURE)  min= -1.94500256950977E+01
DEBUG_STATS_RL:    cg2d_x (SOLVE_FOR_PRESSURE)  max=  9.98035436875079E+00
DEBUG_STATS_RL:    cg2d_x (SOLVE_FOR_PRESSURE) mean= -1.94884351353460E+00
DEBUG_STATS_RL:    cg2d_x (SOLVE_FOR_PRESSURE) S.D.=  7.60195357264140E+00
(PID.TID 0000.0001)      cg2d_init_res =   2.12406957117497E-01
(PID.TID 0000.0001)      cg2d_iters(min,last) =      -1     130
(PID.TID 0000.0001)      cg2d_last_res =   7.51610821726022E-14
(PID.TID 0000.0001) // =======================================================
(PID.TID 0000.0001) // Begin MONITOR dynamic field statistics
(PID.TID 0000.0001) // =======================================================
(PID.TID 0000.0001) %MON time_tsnumber                =                    82
(PID.TID 0000.0001) %MON time_secondsf                =   7.0848000000000E+06
(PID.TID 0000.0001) %MON dynstat_eta_max              =   1.0173653790775E+00
(PID.TID 0000.0001) %MON dynstat_eta_min              =  -1.9826733634147E+00
(PID.TID 0000.0001) %MON dynstat_eta_mean             =  -5.5636936783224E-03
(PID.TID 0000.0001) %MON dynstat_eta_sd               =   6.7756301545482E-01
(PID.TID 0000.0001) %MON dynstat_eta_del2             =   2.4946489008084E-03
(PID.TID 0000.0001) %MON dynstat_uvel_max             =   1.5711085802355E-01
(PID.TID 0000.0001) %MON dynstat_uvel_min             =  -1.3015846183595E-01
(PID.TID 0000.0001) %MON dynstat_uvel_mean            =   2.5291267201184E-03
(PID.TID 0000.0001) %MON dynstat_uvel_sd              =   1.4509074133286E-02
(PID.TID 0000.0001) %MON dynstat_uvel_del2            =   9.1609178429690E-05
(PID.TID 0000.0001) %MON dynstat_vvel_max             =   1.2962977902251E-01
(PID.TID 0000.0001) %MON dynstat_vvel_min             =  -8.3288521615442E-02
(PID.TID 0000.0001) %MON dynstat_vvel_mean            =  -1.8447601679827E-06
(PID.TID 0000.0001) %MON dynstat_vvel_sd              =   8.2625056367349E-03
(PID.TID 0000.0001) %MON dynstat_vvel_del2            =   7.4783086437889E-05
(PID.TID 0000.0001) %MON dynstat_wvel_max             =   1.9087420412726E-04
(PID.TID 0000.0001) %MON dynstat_wvel_min             =  -6.6914788399867E-05
(PID.TID 0000.0001) %MON dynstat_wvel_mean            =   2.8859809794808E-22
(PID.TID 0000.0001) %MON dynstat_wvel_sd              =   1.0433377646018E-05
(PID.TID 0000.0001) %MON dynstat_wvel_del2            =   1.0420444690078E-07
(PID.TID 0000.0001) %MON dynstat_theta_max            =   3.1065582297630E+01
(PID.TID 0000.0001) %MON dynstat_theta_min            =  -1.9426457688039E+00
(PID.TID 0000.0001) %MON dynstat_theta_mean           =   3.6341253458592E+00
(PID.TID 0000.0001) %MON dynstat_theta_sd             =   4.4278295451464E+00
(PID.TID 0000.0001) %MON dynstat_theta_del2           =   4.8439513482321E-03
(PID.TID 0000.0001) %MON dynstat_salt_max             =   3.7472585141628E+01
(PID.TID 0000.0001) %MON dynstat_salt_min             =   2.9925897785288E+01
(PID.TID 0000.0001) %MON dynstat_salt_mean            =   3.4728012399506E+01
(PID.TID 0000.0001) %MON dynstat_salt_sd              =   2.9661488064340E-01
(PID.TID 0000.0001) %MON dynstat_salt_del2            =   9.9445563643189E-04
(PID.TID 0000.0001) %MON dynstat_sst_max              =   3.1065582297630E+01
(PID.TID 0000.0001) %MON dynstat_sst_min              =  -1.9426457688039E+00
(PID.TID 0000.0001) %MON dynstat_sst_mean             =   1.9068747723211E+01
(PID.TID 0000.0001) %MON dynstat_sst_sd               =   9.1940509802378E+00
(PID.TID 0000.0001) %MON dynstat_sst_del2             =   2.8970163533198E-02
(PID.TID 0000.0001) %MON dynstat_sss_max              =   3.7471013820721E+01
(PID.TID 0000.0001) %MON dynstat_sss_min              =   2.9925897785288E+01
(PID.TID 0000.0001) %MON dynstat_sss_mean             =   3.4847853352246E+01
(PID.TID 0000.0001) %MON dynstat_sss_sd               =   9.8756586225953E-01
(PID.TID 0000.0001) %MON dynstat_sss_del2             =   8.2188460572077E-03
(PID.TID 0000.0001) %MON forcing_qnet_max             =   2.4627628173828E+02
(PID.TID 0000.0001) %MON forcing_qnet_min             =  -1.6128761291504E+02
(PID.TID 0000.0001) %MON forcing_qnet_mean            =  -4.8828474163268E+00
(PID.TID 0000.0001) %MON forcing_qnet_sd              =   4.1789417838572E+01
(PID.TID 0000.0001) %MON forcing_qnet_del2            =   8.1227755261188E-01
(PID.TID 0000.0001) %MON forcing_qsw_max              =   0.0000000000000E+00
(PID.TID 0000.0001) %MON forcing_qsw_min              =   0.0000000000000E+00
(PID.TID 0000.0001) %MON forcing_qsw_mean             =   0.0000000000000E+00
(PID.TID 0000.0001) %MON forcing_qsw_sd               =   0.0000000000000E+00
(PID.TID 0000.0001) %MON forcing_qsw_del2             =   0.0000000000000E+00
(PID.TID 0000.0001) %MON forcing_empmr_max            =   6.8531795704985E-05
(PID.TID 0000.0001) %MON forcing_empmr_min            =  -8.3353494062521E-05
(PID.TID 0000.0001) %MON forcing_empmr_mean           =   4.1603886471329E-07
(PID.TID 0000.0001) %MON forcing_empmr_sd             =   2.5903822702636E-05
(PID.TID 0000.0001) %MON forcing_empmr_del2           =   3.6347696662718E-07
(PID.TID 0000.0001) %MON forcing_fu_max               =   3.5241369009018E-01
(PID.TID 0000.0001) %MON forcing_fu_min               =  -3.9415485262871E-01
(PID.TID 0000.0001) %MON forcing_fu_mean              =   1.9693576718791E-02
(PID.TID 0000.0001) %MON forcing_fu_sd                =   1.0078027975270E-01
(PID.TID 0000.0001) %MON forcing_fu_del2              =   8.0191903414414E-04
(PID.TID 0000.0001) %MON forcing_fv_max               =   1.8272433876991E-01
(PID.TID 0000.0001) %MON forcing_fv_min               =  -1.7288535237312E-01
(PID.TID 0000.0001) %MON forcing_fv_mean              =  -7.3107154058064E-03
(PID.TID 0000.0001) %MON forcing_fv_sd                =   4.0457031472126E-02
(PID.TID 0000.0001) %MON forcing_fv_del2              =   4.5597816085300E-04
(PID.TID 0000.0001) %MON trAdv_CFL_u_max              =   4.0479330276628E-02
(PID.TID 0000.0001) %MON trAdv_CFL_v_max              =   2.5317216336416E-02
(PID.TID 0000.0001) %MON trAdv_CFL_w_max              =   4.2574789144871E-02
(PID.TID 0000.0001) %MON advcfl_uvel_max              =   4.1074254858929E-02
(PID.TID 0000.0001) %MON advcfl_vvel_max              =   2.5184987052370E-02
(PID.TID 0000.0001) %MON advcfl_wvel_max              =   4.5182277360535E-02
(PID.TID 0000.0001) %MON advcfl_W_hf_max              =   4.8504503637044E-02
(PID.TID 0000.0001) %MON pe_b_mean                    =   5.8750269913617E-04
(PID.TID 0000.0001) %MON ke_max                       =   1.2432218035437E-02
(PID.TID 0000.0001) %MON ke_mean                      =   1.2919431366778E-04
(PID.TID 0000.0001) %MON ke_vol                       =   1.3226782436723E+18
(PID.TID 0000.0001) %MON vort_r_min                   =  -3.8120833959099E-07
(PID.TID 0000.0001) %MON vort_r_max                   =   3.9145728447796E-07
(PID.TID 0000.0001) %MON vort_a_mean                  =  -2.5274806968822E-05
(PID.TID 0000.0001) %MON vort_a_sd                    =   7.3604674694591E-05
(PID.TID 0000.0001) %MON vort_p_mean                  =  -3.1845655259410E-05
(PID.TID 0000.0001) %MON vort_p_sd                    =   1.3162511414452E-04
(PID.TID 0000.0001) %MON surfExpan_theta_mean         =  -1.1202864411966E-07
(PID.TID 0000.0001) %MON surfExpan_salt_mean          =   6.5394111499546E-08
(PID.TID 0000.0001) // =======================================================
(PID.TID 0000.0001) // End MONITOR dynamic field statistics
(PID.TID 0000.0001) // =======================================================
 EXTERNAL_FIELDS_LOAD,        82 : iP,iLd,i0,i1=    3    4    3    4 ; Wght=  0.7666666667  0.2333333333
 EXTERNAL_FIELDS_LOAD: (fu0,1),fu,fv= -2.7199E-02 -3.7252E-02 -2.9545E-02 -8.6603E-03
 EXTERNAL_FIELDS_LOAD: SST,SSS,Q,E-P= -1.3275E-01  3.4577E+01  1.8943E+02  8.7747E-06
DEBUG_STATS_RL:          Uvel (THERMODYNAMICS)  min= -1.30158461835946E-01
DEBUG_STATS_RL:          Uvel (THERMODYNAMICS)  max=  1.57110858023551E-01
DEBUG_STATS_RL:          Uvel (THERMODYNAMICS) mean=  6.27471847762253E-03
DEBUG_STATS_RL:          Uvel (THERMODYNAMICS) S.D.=  2.24113798860064E-02
DEBUG_STATS_RL:          Vvel (THERMODYNAMICS)  min= -8.32885216154421E-02
DEBUG_STATS_RL:          Vvel (THERMODYNAMICS)  max=  1.29629779022512E-01
DEBUG_STATS_RL:          Vvel (THERMODYNAMICS) mean=  1.06812906942723E-03
DEBUG_STATS_RL:          Vvel (THERMODYNAMICS) S.D.=  1.34150250438989E-02
DEBUG_STATS_RL:          Wvel (THERMODYNAMICS)  min= -6.69147883998670E-05
DEBUG_STATS_RL:          Wvel (THERMODYNAMICS)  max=  1.90874204127258E-04
DEBUG_STATS_RL:          Wvel (THERMODYNAMICS) mean=  1.06022856870955E-08
DEBUG_STATS_RL:          Wvel (THERMODYNAMICS) S.D.=  9.29783382240124E-06
DEBUG_STATS_RL:         Theta (THERMODYNAMICS)  min= -1.94151744514059E+00
DEBUG_STATS_RL:         Theta (THERMODYNAMICS)  max=  3.10864654179158E+01
DEBUG_STATS_RL:         Theta (THERMODYNAMICS) mean=  3.23116610717245E+00
DEBUG_STATS_RL:         Theta (THERMODYNAMICS) S.D.=  5.88754495444255E+00
DEBUG_STATS_RL:          Salt (THERMODYNAMICS)  min=  9.99999999999997E-03
DEBUG_STATS_RL:          Salt (THERMODYNAMICS)  max=  3.74723731369020E+01
DEBUG_STATS_RL:          Salt (THERMODYNAMICS) mean=  1.88547806382389E+01
DEBUG_STATS_RL:          Salt (THERMODYNAMICS) S.D.=  1.73003304297992E+01
DEBUG_STATS_RL:         GtNm1 (THERMODYNAMICS)  min= -3.97482062007738E-06
DEBUG_STATS_RL:         GtNm1 (THERMODYNAMICS)  max=  2.04345245318739E-06
DEBUG_STATS_RL:         GtNm1 (THERMODYNAMICS) mean= -2.55095492801381E-10
DEBUG_STATS_RL:         GtNm1 (THERMODYNAMICS) S.D.=  1.44561602520104E-07
DEBUG_STATS_RL:         GsNm1 (THERMODYNAMICS)  min= -5.58854191943273E-07
DEBUG_STATS_RL:         GsNm1 (THERMODYNAMICS)  max=  3.71241198881750E-07
DEBUG_STATS_RL:         GsNm1 (THERMODYNAMICS) mean= -2.71006827374050E-11
DEBUG_STATS_RL:         GsNm1 (THERMODYNAMICS) S.D.=  1.40733707825407E-08
DEBUG_STATS_RL:                EtaN (DYNAMICS)  min= -1.98267336341468E+00
DEBUG_STATS_RL:                EtaN (DYNAMICS)  max=  1.01736537907745E+00
DEBUG_STATS_RL:                EtaN (DYNAMICS) mean= -1.98658869881203E-01
DEBUG_STATS_RL:                EtaN (DYNAMICS) S.D.=  7.74918814744284E-01
DEBUG_STATS_RL:                Uvel (DYNAMICS)  min= -1.30158461835946E-01
DEBUG_STATS_RL:                Uvel (DYNAMICS)  max=  1.57110858023551E-01
DEBUG_STATS_RL:                Uvel (DYNAMICS) mean=  6.27471847762253E-03
DEBUG_STATS_RL:                Uvel (DYNAMICS) S.D.=  2.24113798860064E-02
DEBUG_STATS_RL:                Vvel (DYNAMICS)  min= -8.32885216154421E-02
DEBUG_STATS_RL:                Vvel (DYNAMICS)  max=  1.29629779022512E-01
DEBUG_STATS_RL:                Vvel (DYNAMICS) mean=  1.06812906942723E-03
DEBUG_STATS_RL:                Vvel (DYNAMICS) S.D.=  1.34150250438989E-02
DEBUG_STATS_RL:                Wvel (DYNAMICS)  min= -6.69147883998670E-05
DEBUG_STATS_RL:                Wvel (DYNAMICS)  max=  1.90874204127258E-04
DEBUG_STATS_RL:                Wvel (DYNAMICS) mean=  1.06022856870955E-08
DEBUG_STATS_RL:                Wvel (DYNAMICS) S.D.=  9.29783382240124E-06
DEBUG_STATS_RL:               Theta (DYNAMICS)  min= -1.94151744514059E+00
DEBUG_STATS_RL:               Theta (DYNAMICS)  max=  3.10864654179158E+01
DEBUG_STATS_RL:               Theta (DYNAMICS) mean=  3.23116610717245E+00
DEBUG_STATS_RL:               Theta (DYNAMICS) S.D.=  5.88754495444255E+00
DEBUG_STATS_RL:                Salt (DYNAMICS)  min=  9.99999999999997E-03
DEBUG_STATS_RL:                Salt (DYNAMICS)  max=  3.74723731369020E+01
DEBUG_STATS_RL:                Salt (DYNAMICS) mean=  1.88547806382389E+01
DEBUG_STATS_RL:                Salt (DYNAMICS) S.D.=  1.73003304297992E+01
DEBUG_STATS_RL:                  Gu (DYNAMICS)  min= -1.29304193434817E-01
DEBUG_STATS_RL:                  Gu (DYNAMICS)  max=  1.63126973450590E-01
DEBUG_STATS_RL:                  Gu (DYNAMICS) mean=  6.22579963079261E-03
DEBUG_STATS_RL:                  Gu (DYNAMICS) S.D.=  2.27394126345187E-02
DEBUG_STATS_RL:                  Gv (DYNAMICS)  min= -8.95348230029489E-02
DEBUG_STATS_RL:                  Gv (DYNAMICS)  max=  1.30037233034085E-01
DEBUG_STATS_RL:                  Gv (DYNAMICS) mean=  3.66932797374763E-03
DEBUG_STATS_RL:                  Gv (DYNAMICS) S.D.=  1.49761745068466E-02
DEBUG_STATS_RL:               GuNm1 (DYNAMICS)  min= -1.02663107578070E-05
DEBUG_STATS_RL:               GuNm1 (DYNAMICS)  max=  9.25422016880155E-06
DEBUG_STATS_RL:               GuNm1 (DYNAMICS) mean=  1.01519365967812E-08
DEBUG_STATS_RL:               GuNm1 (DYNAMICS) S.D.=  1.22274956733916E-06
DEBUG_STATS_RL:               GvNm1 (DYNAMICS)  min= -9.50969244135267E-06
DEBUG_STATS_RL:               GvNm1 (DYNAMICS)  max=  1.54758485970801E-05
DEBUG_STATS_RL:               GvNm1 (DYNAMICS) mean=  7.37488812652348E-07
DEBUG_STATS_RL:               GvNm1 (DYNAMICS) S.D.=  2.61255401162618E-06
DEBUG_STATS_RL:               GtNm1 (DYNAMICS)  min= -3.97482062007738E-06
DEBUG_STATS_RL:               GtNm1 (DYNAMICS)  max=  2.04345245318739E-06
DEBUG_STATS_RL:               GtNm1 (DYNAMICS) mean= -2.55095492801381E-10
DEBUG_STATS_RL:               GtNm1 (DYNAMICS) S.D.=  1.44561602520104E-07
DEBUG_STATS_RL:               GsNm1 (DYNAMICS)  min= -5.58854191943273E-07
DEBUG_STATS_RL:               GsNm1 (DYNAMICS)  max=  3.71241198881750E-07
DEBUG_STATS_RL:               GsNm1 (DYNAMICS) mean= -2.71006827374050E-11
DEBUG_STATS_RL:               GsNm1 (DYNAMICS) S.D.=  1.40733707825407E-08
DEBUG_STATS_RL:    cg2d_b (SOLVE_FOR_PRESSURE)  min= -2.69926365137399E+04
DEBUG_STATS_RL:    cg2d_b (SOLVE_FOR_PRESSURE)  max=  2.86669093077687E+04
DEBUG_STATS_RL:    cg2d_b (SOLVE_FOR_PRESSURE) mean=  5.36388622819180E+00
DEBUG_STATS_RL:    cg2d_b (SOLVE_FOR_PRESSURE) S.D.=  3.97135040764180E+03
 cg2d: Sum(rhs),rhsMax =   4.33161331936780E-01  1.88291935685430E+00
(PID.TID 0000.0001)  cg2d: iter=     1 ; resid.=  7.58910778589256E-02
(PID.TID 0000.0001)  cg2d: iter=     2 ; resid.=  5.45440961547971E-02
(PID.TID 0000.0001)  cg2d: iter=     3 ; resid.=  5.16866388192649E-02
(PID.TID 0000.0001)  cg2d: iter=     4 ; resid.=  5.24245532244257E-02
(PID.TID 0000.0001)  cg2d: iter=     5 ; resid.=  4.35808809523046E-02
(PID.TID 0000.0001)  cg2d: iter=     6 ; resid.=  3.66856631042987E-02
(PID.TID 0000.0001)  cg2d: iter=     7 ; resid.=  3.37682390449355E-02
(PID.TID 0000.0001)  cg2d: iter=     8 ; resid.=  2.85964204728690E-02
(PID.TID 0000.0001)  cg2d: iter=     9 ; resid.=  2.17272744317182E-02
(PID.TID 0000.0001)  cg2d: iter=    10 ; resid.=  1.71490546630924E-02
(PID.TID 0000.0001)  cg2d: iter=    11 ; resid.=  1.35450835838808E-02
(PID.TID 0000.0001)  cg2d: iter=    12 ; resid.=  1.12689824611424E-02
(PID.TID 0000.0001)  cg2d: iter=    13 ; resid.=  9.35088818683734E-03
(PID.TID 0000.0001)  cg2d: iter=    14 ; resid.=  7.59411069770482E-03
(PID.TID 0000.0001)  cg2d: iter=    15 ; resid.=  6.28347818594759E-03
(PID.TID 0000.0001)  cg2d: iter=    16 ; resid.=  4.97819859324521E-03
(PID.TID 0000.0001)  cg2d: iter=    17 ; resid.=  4.48997529582464E-03
(PID.TID 0000.0001)  cg2d: iter=    18 ; resid.=  4.04364778721423E-03
(PID.TID 0000.0001)  cg2d: iter=    19 ; resid.=  3.22172739271054E-03
(PID.TID 0000.0001)  cg2d: iter=    20 ; resid.=  2.75815757769789E-03
(PID.TID 0000.0001)  cg2d: iter=    21 ; resid.=  2.31318697679725E-03
(PID.TID 0000.0001)  cg2d: iter=    22 ; resid.=  2.11314572832737E-03
(PID.TID 0000.0001)  cg2d: iter=    23 ; resid.=  1.81253038736937E-03
(PID.TID 0000.0001)  cg2d: iter=    24 ; resid.=  1.37209378248478E-03
(PID.TID 0000.0001)  cg2d: iter=    25 ; resid.=  1.09773831816598E-03
(PID.TID 0000.0001)  cg2d: iter=    26 ; resid.=  8.26019547994663E-04
(PID.TID 0000.0001)  cg2d: iter=    27 ; resid.=  6.75943231641285E-04
(PID.TID 0000.0001)  cg2d: iter=    28 ; resid.=  5.70196151766661E-04
(PID.TID 0000.0001)  cg2d: iter=    29 ; resid.=  4.83062500134866E-04
(PID.TID 0000.0001)  cg2d: iter=    30 ; resid.=  3.88210520244943E-04
(PID.TID 0000.0001)  cg2d: iter=    31 ; resid.=  2.98912103832563E-04
(PID.TID 0000.0001)  cg2d: iter=    32 ; resid.=  2.24298907266659E-04
(PID.TID 0000.0001)  cg2d: iter=    33 ; resid.=  1.72225002568995E-04
(PID.TID 0000.0001)  cg2d: iter=    34 ; resid.=  1.42581302590558E-04
(PID.TID 0000.0001)  cg2d: iter=    35 ; resid.=  1.21810399651067E-04
(PID.TID 0000.0001)  cg2d: iter=    36 ; resid.=  1.02184398642855E-04
(PID.TID 0000.0001)  cg2d: iter=    37 ; resid.=  8.99079876228859E-05
(PID.TID 0000.0001)  cg2d: iter=    38 ; resid.=  7.52630839553643E-05
(PID.TID 0000.0001)  cg2d: iter=    39 ; resid.=  6.31222606641488E-05
(PID.TID 0000.0001)  cg2d: iter=    40 ; resid.=  5.27356180601562E-05
(PID.TID 0000.0001)  cg2d: iter=    41 ; resid.=  4.08786918788919E-05
(PID.TID 0000.0001)  cg2d: iter=    42 ; resid.=  3.23294099982110E-05
(PID.TID 0000.0001)  cg2d: iter=    43 ; resid.=  2.71155459819391E-05
(PID.TID 0000.0001)  cg2d: iter=    44 ; resid.=  2.43031279831575E-05
(PID.TID 0000.0001)  cg2d: iter=    45 ; resid.=  2.08601937884285E-05
(PID.TID 0000.0001)  cg2d: iter=    46 ; resid.=  1.64101158139822E-05
(PID.TID 0000.0001)  cg2d: iter=    47 ; resid.=  1.20669072036065E-05
(PID.TID 0000.0001)  cg2d: iter=    48 ; resid.=  9.83596400891441E-06
(PID.TID 0000.0001)  cg2d: iter=    49 ; resid.=  8.11927220324540E-06
(PID.TID 0000.0001)  cg2d: iter=    50 ; resid.=  6.49512634562030E-06
(PID.TID 0000.0001)  cg2d: iter=    51 ; resid.=  5.29611634217347E-06
(PID.TID 0000.0001)  cg2d: iter=    52 ; resid.=  4.51565708525817E-06
(PID.TID 0000.0001)  cg2d: iter=    53 ; resid.=  4.32128079919887E-06
(PID.TID 0000.0001)  cg2d: iter=    54 ; resid.=  3.83713307283507E-06
(PID.TID 0000.0001)  cg2d: iter=    55 ; resid.=  3.53059383641115E-06
(PID.TID 0000.0001)  cg2d: iter=    56 ; resid.=  3.04276864090385E-06
(PID.TID 0000.0001)  cg2d: iter=    57 ; resid.=  2.54762007158986E-06
(PID.TID 0000.0001)  cg2d: iter=    58 ; resid.=  2.02239018057431E-06
(PID.TID 0000.0001)  cg2d: iter=    59 ; resid.=  1.44275033108556E-06
(PID.TID 0000.0001)  cg2d: iter=    60 ; resid.=  1.21960064444743E-06
(PID.TID 0000.0001)  cg2d: iter=    61 ; resid.=  1.03048926601488E-06
(PID.TID 0000.0001)  cg2d: iter=    62 ; resid.=  8.65788972401720E-07
(PID.TID 0000.0001)  cg2d: iter=    63 ; resid.=  6.89636126107832E-07
(PID.TID 0000.0001)  cg2d: iter=    64 ; resid.=  5.44262635890814E-07
(PID.TID 0000.0001)  cg2d: iter=    65 ; resid.=  4.74342149766485E-07
(PID.TID 0000.0001)  cg2d: iter=    66 ; resid.=  3.94209612109449E-07
(PID.TID 0000.0001)  cg2d: iter=    67 ; resid.=  3.21427869988125E-07
(PID.TID 0000.0001)  cg2d: iter=    68 ; resid.=  2.80323971211045E-07
(PID.TID 0000.0001)  cg2d: iter=    69 ; resid.=  2.54659196517763E-07
(PID.TID 0000.0001)  cg2d: iter=    70 ; resid.=  2.25932752391342E-07
(PID.TID 0000.0001)  cg2d: iter=    71 ; resid.=  1.82170488104415E-07
(PID.TID 0000.0001)  cg2d: iter=    72 ; resid.=  1.58858552586874E-07
(PID.TID 0000.0001)  cg2d: iter=    73 ; resid.=  1.34080681455755E-07
(PID.TID 0000.0001)  cg2d: iter=    74 ; resid.=  1.14065764582974E-07
(PID.TID 0000.0001)  cg2d: iter=    75 ; resid.=  9.74803342671496E-08
(PID.TID 0000.0001)  cg2d: iter=    76 ; resid.=  8.35122644802427E-08
(PID.TID 0000.0001)  cg2d: iter=    77 ; resid.=  6.72392270637984E-08
(PID.TID 0000.0001)  cg2d: iter=    78 ; resid.=  5.69570394356509E-08
(PID.TID 0000.0001)  cg2d: iter=    79 ; resid.=  4.53005327696295E-08
(PID.TID 0000.0001)  cg2d: iter=    80 ; resid.=  3.60730483062723E-08
(PID.TID 0000.0001)  cg2d: iter=    81 ; resid.=  2.66790698424110E-08
(PID.TID 0000.0001)  cg2d: iter=    82 ; resid.=  1.85558261657440E-08
(PID.TID 0000.0001)  cg2d: iter=    83 ; resid.=  1.45125264073719E-08
(PID.TID 0000.0001)  cg2d: iter=    84 ; resid.=  1.22229259862711E-08
(PID.TID 0000.0001)  cg2d: iter=    85 ; resid.=  9.09495551530010E-09
(PID.TID 0000.0001)  cg2d: iter=    86 ; resid.=  6.53118592670293E-09
(PID.TID 0000.0001)  cg2d: iter=    87 ; resid.=  5.09592952403801E-09
(PID.TID 0000.0001)  cg2d: iter=    88 ; resid.=  4.15632702201950E-09
(PID.TID 0000.0001)  cg2d: iter=    89 ; resid.=  3.27074162498828E-09
(PID.TID 0000.0001)  cg2d: iter=    90 ; resid.=  2.69733047659786E-09
(PID.TID 0000.0001)  cg2d: iter=    91 ; resid.=  2.19171422695558E-09
(PID.TID 0000.0001)  cg2d: iter=    92 ; resid.=  1.99532314896438E-09
(PID.TID 0000.0001)  cg2d: iter=    93 ; resid.=  1.51666192700267E-09
(PID.TID 0000.0001)  cg2d: iter=    94 ; resid.=  1.16066239717388E-09
(PID.TID 0000.0001)  cg2d: iter=    95 ; resid.=  9.77671716316910E-10
(PID.TID 0000.0001)  cg2d: iter=    96 ; resid.=  7.68874769579352E-10
(PID.TID 0000.0001)  cg2d: iter=    97 ; resid.=  6.15691694799350E-10
(PID.TID 0000.0001)  cg2d: iter=    98 ; resid.=  4.92939098761481E-10
(PID.TID 0000.0001)  cg2d: iter=    99 ; resid.=  4.32068897035473E-10
(PID.TID 0000.0001)  cg2d: iter=   100 ; resid.=  3.58020924929127E-10
(PID.TID 0000.0001)  cg2d: iter=   101 ; resid.=  2.85071123473590E-10
(PID.TID 0000.0001)  cg2d: iter=   102 ; resid.=  2.32548582821761E-10
(PID.TID 0000.0001)  cg2d: iter=   103 ; resid.=  1.80810633982152E-10
(PID.TID 0000.0001)  cg2d: iter=   104 ; resid.=  1.51336029496490E-10
(PID.TID 0000.0001)  cg2d: iter=   105 ; resid.=  1.29366341652653E-10
(PID.TID 0000.0001)  cg2d: iter=   106 ; resid.=  1.03464852059366E-10
(PID.TID 0000.0001)  cg2d: iter=   107 ; resid.=  7.39698910451989E-11
(PID.TID 0000.0001)  cg2d: iter=   108 ; resid.=  5.91341605506011E-11
(PID.TID 0000.0001)  cg2d: iter=   109 ; resid.=  4.53740063561293E-11
(PID.TID 0000.0001)  cg2d: iter=   110 ; resid.=  3.49176483039969E-11
(PID.TID 0000.0001)  cg2d: iter=   111 ; resid.=  2.81035515613285E-11
(PID.TID 0000.0001)  cg2d: iter=   112 ; resid.=  2.02911299331795E-11
(PID.TID 0000.0001)  cg2d: iter=   113 ; resid.=  1.37433067562196E-11
(PID.TID 0000.0001)  cg2d: iter=   114 ; resid.=  1.01197512392718E-11
(PID.TID 0000.0001)  cg2d: iter=   115 ; resid.=  7.40990101103095E-12
(PID.TID 0000.0001)  cg2d: iter=   116 ; resid.=  5.53483070503313E-12
(PID.TID 0000.0001)  cg2d: iter=   117 ; resid.=  4.22103045425908E-12
(PID.TID 0000.0001)  cg2d: iter=   118 ; resid.=  3.16914224609905E-12
(PID.TID 0000.0001)  cg2d: iter=   119 ; resid.=  2.44049251859029E-12
(PID.TID 0000.0001)  cg2d: iter=   120 ; resid.=  1.95075860773099E-12
(PID.TID 0000.0001)  cg2d: iter=   121 ; resid.=  1.48331309467121E-12
(PID.TID 0000.0001)  cg2d: iter=   122 ; resid.=  1.21641732179017E-12
(PID.TID 0000.0001)  cg2d: iter=   123 ; resid.=  9.47842741098035E-13
(PID.TID 0000.0001)  cg2d: iter=   124 ; resid.=  7.50073304963996E-13
(PID.TID 0000.0001)  cg2d: iter=   125 ; resid.=  5.89874247960971E-13
(PID.TID 0000.0001)  cg2d: iter=   126 ; resid.=  4.39414458904974E-13
(PID.TID 0000.0001)  cg2d: iter=   127 ; resid.=  3.06488422038695E-13
(PID.TID 0000.0001)  cg2d: iter=   128 ; resid.=  2.03026025776581E-13
(PID.TID 0000.0001)  cg2d: iter=   129 ; resid.=  1.20082477741605E-13
(PID.TID 0000.0001)  cg2d: iter=   130 ; resid.=  7.87228034682108E-14
DEBUG_STATS_RL:    cg2d_x (SOLVE_FOR_PRESSURE)  min= -1.94205446221042E+01
DEBUG_STATS_RL:    cg2d_x (SOLVE_FOR_PRESSURE)  max=  9.85100602760833E+00
DEBUG_STATS_RL:    cg2d_x (SOLVE_FOR_PRESSURE) mean= -1.94212116358955E+00
DEBUG_STATS_RL:    cg2d_x (SOLVE_FOR_PRESSURE) S.D.=  7.54306357136185E+00
(PID.TID 0000.0001)      cg2d_init_res =   2.08635397485352E-01
(PID.TID 0000.0001)      cg2d_iters(min,last) =      -1     130
(PID.TID 0000.0001)      cg2d_last_res =   7.87228034682108E-14
(PID.TID 0000.0001) // =======================================================
(PID.TID 0000.0001) // Begin MONITOR dynamic field statistics
(PID.TID 0000.0001) // =======================================================
(PID.TID 0000.0001) %MON time_tsnumber                =                    83
(PID.TID 0000.0001) %MON time_secondsf                =   7.1712000000000E+06
(PID.TID 0000.0001) %MON dynstat_eta_max              =   1.0041800232016E+00
(PID.TID 0000.0001) %MON dynstat_eta_min              =  -1.9796681571972E+00
(PID.TID 0000.0001) %MON dynstat_eta_mean             =  -5.5965501791829E-03
(PID.TID 0000.0001) %MON dynstat_eta_sd               =   6.7079521033054E-01
(PID.TID 0000.0001) %MON dynstat_eta_del2             =   2.5019281597417E-03
(PID.TID 0000.0001) %MON dynstat_uvel_max             =   1.5845159327919E-01
(PID.TID 0000.0001) %MON dynstat_uvel_min             =  -1.3130120525801E-01
(PID.TID 0000.0001) %MON dynstat_uvel_mean            =   2.5266489740971E-03
(PID.TID 0000.0001) %MON dynstat_uvel_sd              =   1.4480593506718E-02
(PID.TID 0000.0001) %MON dynstat_uvel_del2            =   9.1850332568414E-05
(PID.TID 0000.0001) %MON dynstat_vvel_max             =   1.3149091895113E-01
(PID.TID 0000.0001) %MON dynstat_vvel_min             =  -8.4591036698109E-02
(PID.TID 0000.0001) %MON dynstat_vvel_mean            =   7.9580939466654E-06
(PID.TID 0000.0001) %MON dynstat_vvel_sd              =   8.2345772204772E-03
(PID.TID 0000.0001) %MON dynstat_vvel_del2            =   7.4821878693382E-05
(PID.TID 0000.0001) %MON dynstat_wvel_max             =   1.8776721020691E-04
(PID.TID 0000.0001) %MON dynstat_wvel_min             =  -6.5671748792399E-05
(PID.TID 0000.0001) %MON dynstat_wvel_mean            =  -7.9224131638829E-23
(PID.TID 0000.0001) %MON dynstat_wvel_sd              =   1.0344075450508E-05
(PID.TID 0000.0001) %MON dynstat_wvel_del2            =   1.0313483568527E-07
(PID.TID 0000.0001) %MON dynstat_theta_max            =   3.1086465417916E+01
(PID.TID 0000.0001) %MON dynstat_theta_min            =  -1.9415174451406E+00
(PID.TID 0000.0001) %MON dynstat_theta_mean           =   3.6341526625831E+00
(PID.TID 0000.0001) %MON dynstat_theta_sd             =   4.4279796100568E+00
(PID.TID 0000.0001) %MON dynstat_theta_del2           =   4.8421092562893E-03
(PID.TID 0000.0001) %MON dynstat_salt_max             =   3.7472373136902E+01
(PID.TID 0000.0001) %MON dynstat_salt_min             =   2.9928781255880E+01
(PID.TID 0000.0001) %MON dynstat_salt_mean            =   3.4728011354548E+01
(PID.TID 0000.0001) %MON dynstat_salt_sd              =   2.9661955597526E-01
(PID.TID 0000.0001) %MON dynstat_salt_del2            =   9.9503976681673E-04
(PID.TID 0000.0001) %MON dynstat_sst_max              =   3.1086465417916E+01
(PID.TID 0000.0001) %MON dynstat_sst_min              =  -1.9415174451406E+00
(PID.TID 0000.0001) %MON dynstat_sst_mean             =   1.9068425488842E+01
(PID.TID 0000.0001) %MON dynstat_sst_sd               =   9.2016949906819E+00
(PID.TID 0000.0001) %MON dynstat_sst_del2             =   2.9022514538298E-02
(PID.TID 0000.0001) %MON dynstat_sss_max              =   3.7471590053539E+01
(PID.TID 0000.0001) %MON dynstat_sss_min              =   2.9928781255880E+01
(PID.TID 0000.0001) %MON dynstat_sss_mean             =   3.4847816710597E+01
(PID.TID 0000.0001) %MON dynstat_sss_sd               =   9.8794055228731E-01
(PID.TID 0000.0001) %MON dynstat_sss_del2             =   8.2315455250986E-03
(PID.TID 0000.0001) %MON forcing_qnet_max             =   2.4157104695638E+02
(PID.TID 0000.0001) %MON forcing_qnet_min             =  -1.6085961659749E+02
(PID.TID 0000.0001) %MON forcing_qnet_mean            =  -4.4858109873572E+00
(PID.TID 0000.0001) %MON forcing_qnet_sd              =   4.1223620087480E+01
(PID.TID 0000.0001) %MON forcing_qnet_del2            =   8.0717282221424E-01
(PID.TID 0000.0001) %MON forcing_qsw_max              =   0.0000000000000E+00
(PID.TID 0000.0001) %MON forcing_qsw_min              =   0.0000000000000E+00
(PID.TID 0000.0001) %MON forcing_qsw_mean             =   0.0000000000000E+00
(PID.TID 0000.0001) %MON forcing_qsw_sd               =   0.0000000000000E+00
(PID.TID 0000.0001) %MON forcing_qsw_del2             =   0.0000000000000E+00
(PID.TID 0000.0001) %MON forcing_empmr_max            =   6.8435624693090E-05
(PID.TID 0000.0001) %MON forcing_empmr_min            =  -8.3368340142442E-05
(PID.TID 0000.0001) %MON forcing_empmr_mean           =   3.9359349988573E-07
(PID.TID 0000.0001) %MON forcing_empmr_sd             =   2.5851876556707E-05
(PID.TID 0000.0001) %MON forcing_empmr_del2           =   3.6323282010377E-07
(PID.TID 0000.0001) %MON forcing_fu_max               =   3.5182609558105E-01
(PID.TID 0000.0001) %MON forcing_fu_min               =  -3.9508792459965E-01
(PID.TID 0000.0001) %MON forcing_fu_mean              =   1.9566384621858E-02
(PID.TID 0000.0001) %MON forcing_fu_sd                =   1.0063685282734E-01
(PID.TID 0000.0001) %MON forcing_fu_del2              =   7.9634795376390E-04
(PID.TID 0000.0001) %MON forcing_fv_max               =   1.8262833754222E-01
(PID.TID 0000.0001) %MON forcing_fv_min               =  -1.6947763959567E-01
(PID.TID 0000.0001) %MON forcing_fv_mean              =  -7.2742387334334E-03
(PID.TID 0000.0001) %MON forcing_fv_sd                =   4.0166105631794E-02
(PID.TID 0000.0001) %MON forcing_fv_del2              =   4.4910941931624E-04
(PID.TID 0000.0001) %MON trAdv_CFL_u_max              =   4.1082597333859E-02
(PID.TID 0000.0001) %MON trAdv_CFL_v_max              =   2.5144057560701E-02
(PID.TID 0000.0001) %MON trAdv_CFL_w_max              =   4.2285977529731E-02
(PID.TID 0000.0001) %MON advcfl_uvel_max              =   4.1424769790113E-02
(PID.TID 0000.0001) %MON advcfl_vvel_max              =   2.5546576691404E-02
(PID.TID 0000.0001) %MON advcfl_wvel_max              =   4.4446813594183E-02
(PID.TID 0000.0001) %MON advcfl_W_hf_max              =   4.7714961652579E-02
(PID.TID 0000.0001) %MON pe_b_mean                    =   5.7582608624669E-04
(PID.TID 0000.0001) %MON ke_max                       =   1.2587183404288E-02
(PID.TID 0000.0001) %MON ke_mean                      =   1.2860670166590E-04
(PID.TID 0000.0001) %MON ke_vol                       =   1.3226782436723E+18
(PID.TID 0000.0001) %MON vort_r_min                   =  -3.8102967918617E-07
(PID.TID 0000.0001) %MON vort_r_max                   =   3.8959265213651E-07
(PID.TID 0000.0001) %MON vort_a_mean                  =  -2.5274807005966E-05
(PID.TID 0000.0001) %MON vort_a_sd                    =   7.3604672687577E-05
(PID.TID 0000.0001) %MON vort_p_mean                  =  -3.1845655306210E-05
(PID.TID 0000.0001) %MON vort_p_sd                    =   1.3162507784808E-04
(PID.TID 0000.0001) %MON surfExpan_theta_mean         =  -1.4735884893746E-07
(PID.TID 0000.0001) %MON surfExpan_salt_mean          =   7.3769674562655E-08
(PID.TID 0000.0001) // =======================================================
(PID.TID 0000.0001) // End MONITOR dynamic field statistics
(PID.TID 0000.0001) // =======================================================
 EXTERNAL_FIELDS_LOAD,        83 : iP,iLd,i0,i1=    3    4    3    4 ; Wght=  0.7333333333  0.2666666667
 EXTERNAL_FIELDS_LOAD: (fu0,1),fu,fv= -2.7199E-02 -3.7252E-02 -2.9880E-02 -9.8149E-03
 EXTERNAL_FIELDS_LOAD: SST,SSS,Q,E-P= -1.2544E-01  3.4576E+01  1.8572E+02  8.7310E-06
DEBUG_STATS_RL:          Uvel (THERMODYNAMICS)  min= -1.31301205258008E-01
DEBUG_STATS_RL:          Uvel (THERMODYNAMICS)  max=  1.58451593279186E-01
DEBUG_STATS_RL:          Uvel (THERMODYNAMICS) mean=  6.24553209390838E-03
DEBUG_STATS_RL:          Uvel (THERMODYNAMICS) S.D.=  2.23473038976408E-02
DEBUG_STATS_RL:          Vvel (THERMODYNAMICS)  min= -8.45910366981091E-02
DEBUG_STATS_RL:          Vvel (THERMODYNAMICS)  max=  1.31490918951131E-01
DEBUG_STATS_RL:          Vvel (THERMODYNAMICS) mean=  1.07379188623504E-03
DEBUG_STATS_RL:          Vvel (THERMODYNAMICS) S.D.=  1.33639527014068E-02
DEBUG_STATS_RL:          Wvel (THERMODYNAMICS)  min= -6.56717487923991E-05
DEBUG_STATS_RL:          Wvel (THERMODYNAMICS)  max=  1.87767210206907E-04
DEBUG_STATS_RL:          Wvel (THERMODYNAMICS) mean=  8.17821769162574E-09
DEBUG_STATS_RL:          Wvel (THERMODYNAMICS) S.D.=  9.21293309312292E-06
DEBUG_STATS_RL:         Theta (THERMODYNAMICS)  min= -1.94038580485003E+00
DEBUG_STATS_RL:         Theta (THERMODYNAMICS)  max=  3.11066843360084E+01
DEBUG_STATS_RL:         Theta (THERMODYNAMICS) mean=  3.23109533510484E+00
DEBUG_STATS_RL:         Theta (THERMODYNAMICS) S.D.=  5.88782982769048E+00
DEBUG_STATS_RL:          Salt (THERMODYNAMICS)  min=  9.99999999999997E-03
DEBUG_STATS_RL:          Salt (THERMODYNAMICS)  max=  3.74722162982231E+01
DEBUG_STATS_RL:          Salt (THERMODYNAMICS) mean=  1.88547803480370E+01
DEBUG_STATS_RL:          Salt (THERMODYNAMICS) S.D.=  1.73003309584070E+01
DEBUG_STATS_RL:         GtNm1 (THERMODYNAMICS)  min= -3.84933456971294E-06
DEBUG_STATS_RL:         GtNm1 (THERMODYNAMICS)  max=  2.37427919484896E-06
DEBUG_STATS_RL:         GtNm1 (THERMODYNAMICS) mean= -4.68340754280868E-10
DEBUG_STATS_RL:         GtNm1 (THERMODYNAMICS) S.D.=  1.44515153699537E-07
DEBUG_STATS_RL:         GsNm1 (THERMODYNAMICS)  min= -6.76253221914716E-07
DEBUG_STATS_RL:         GsNm1 (THERMODYNAMICS)  max=  4.50816731104019E-07
DEBUG_STATS_RL:         GsNm1 (THERMODYNAMICS) mean= -5.42939421881816E-11
DEBUG_STATS_RL:         GsNm1 (THERMODYNAMICS) S.D.=  1.43414991284038E-08
DEBUG_STATS_RL:                EtaN (DYNAMICS)  min= -1.97966815719717E+00
DEBUG_STATS_RL:                EtaN (DYNAMICS)  max=  1.00418002320156E+00
DEBUG_STATS_RL:                EtaN (DYNAMICS) mean= -1.97973615044805E-01
DEBUG_STATS_RL:                EtaN (DYNAMICS) S.D.=  7.68915756509873E-01
DEBUG_STATS_RL:                Uvel (DYNAMICS)  min= -1.31301205258008E-01
DEBUG_STATS_RL:                Uvel (DYNAMICS)  max=  1.58451593279186E-01
DEBUG_STATS_RL:                Uvel (DYNAMICS) mean=  6.24553209390838E-03
DEBUG_STATS_RL:                Uvel (DYNAMICS) S.D.=  2.23473038976408E-02
DEBUG_STATS_RL:                Vvel (DYNAMICS)  min= -8.45910366981091E-02
DEBUG_STATS_RL:                Vvel (DYNAMICS)  max=  1.31490918951131E-01
DEBUG_STATS_RL:                Vvel (DYNAMICS) mean=  1.07379188623504E-03
DEBUG_STATS_RL:                Vvel (DYNAMICS) S.D.=  1.33639527014068E-02
DEBUG_STATS_RL:                Wvel (DYNAMICS)  min= -6.56717487923991E-05
DEBUG_STATS_RL:                Wvel (DYNAMICS)  max=  1.87767210206907E-04
DEBUG_STATS_RL:                Wvel (DYNAMICS) mean=  8.17821769162574E-09
DEBUG_STATS_RL:                Wvel (DYNAMICS) S.D.=  9.21293309312292E-06
DEBUG_STATS_RL:               Theta (DYNAMICS)  min= -1.94038580485003E+00
DEBUG_STATS_RL:               Theta (DYNAMICS)  max=  3.11066843360084E+01
DEBUG_STATS_RL:               Theta (DYNAMICS) mean=  3.23109533510484E+00
DEBUG_STATS_RL:               Theta (DYNAMICS) S.D.=  5.88782982769048E+00
DEBUG_STATS_RL:                Salt (DYNAMICS)  min=  9.99999999999997E-03
DEBUG_STATS_RL:                Salt (DYNAMICS)  max=  3.74722162982231E+01
DEBUG_STATS_RL:                Salt (DYNAMICS) mean=  1.88547803480370E+01
DEBUG_STATS_RL:                Salt (DYNAMICS) S.D.=  1.73003309584070E+01
DEBUG_STATS_RL:                  Gu (DYNAMICS)  min= -1.30423965977212E-01
DEBUG_STATS_RL:                  Gu (DYNAMICS)  max=  1.63463603778583E-01
DEBUG_STATS_RL:                  Gu (DYNAMICS) mean=  6.19432012752028E-03
DEBUG_STATS_RL:                  Gu (DYNAMICS) S.D.=  2.26729596140080E-02
DEBUG_STATS_RL:                  Gv (DYNAMICS)  min= -9.03312337885235E-02
DEBUG_STATS_RL:                  Gv (DYNAMICS)  max=  1.31858853841553E-01
DEBUG_STATS_RL:                  Gv (DYNAMICS) mean=  3.65898686566676E-03
DEBUG_STATS_RL:                  Gv (DYNAMICS) S.D.=  1.49326407104135E-02
DEBUG_STATS_RL:               GuNm1 (DYNAMICS)  min= -1.02177233478258E-05
DEBUG_STATS_RL:               GuNm1 (DYNAMICS)  max=  9.23500662939259E-06
DEBUG_STATS_RL:               GuNm1 (DYNAMICS) mean=  1.05917303772801E-08
DEBUG_STATS_RL:               GuNm1 (DYNAMICS) S.D.=  1.22323120714501E-06
DEBUG_STATS_RL:               GvNm1 (DYNAMICS)  min= -9.46773828293193E-06
DEBUG_STATS_RL:               GvNm1 (DYNAMICS)  max=  1.54455486893036E-05
DEBUG_STATS_RL:               GvNm1 (DYNAMICS) mean=  7.37550921263404E-07
DEBUG_STATS_RL:               GvNm1 (DYNAMICS) S.D.=  2.61138928613181E-06
DEBUG_STATS_RL:               GtNm1 (DYNAMICS)  min= -3.84933456971294E-06
DEBUG_STATS_RL:               GtNm1 (DYNAMICS)  max=  2.37427919484896E-06
DEBUG_STATS_RL:               GtNm1 (DYNAMICS) mean= -4.68340754280868E-10
DEBUG_STATS_RL:               GtNm1 (DYNAMICS) S.D.=  1.44515153699537E-07
DEBUG_STATS_RL:               GsNm1 (DYNAMICS)  min= -6.76253221914716E-07
DEBUG_STATS_RL:               GsNm1 (DYNAMICS)  max=  4.50816731104019E-07
DEBUG_STATS_RL:               GsNm1 (DYNAMICS) mean= -5.42939421881816E-11
DEBUG_STATS_RL:               GsNm1 (DYNAMICS) S.D.=  1.43414991284038E-08
DEBUG_STATS_RL:    cg2d_b (SOLVE_FOR_PRESSURE)  min= -2.74505901114228E+04
DEBUG_STATS_RL:    cg2d_b (SOLVE_FOR_PRESSURE)  max=  2.90365656774107E+04
DEBUG_STATS_RL:    cg2d_b (SOLVE_FOR_PRESSURE) mean=  5.39358098896533E+00
DEBUG_STATS_RL:    cg2d_b (SOLVE_FOR_PRESSURE) S.D.=  3.97518984163049E+03
 cg2d: Sum(rhs),rhsMax =   4.30014352529648E-01  1.90719937693986E+00
(PID.TID 0000.0001)  cg2d: iter=     1 ; resid.=  7.50887065673921E-02
(PID.TID 0000.0001)  cg2d: iter=     2 ; resid.=  5.61995882250393E-02
(PID.TID 0000.0001)  cg2d: iter=     3 ; resid.=  5.49835227404004E-02
(PID.TID 0000.0001)  cg2d: iter=     4 ; resid.=  5.54100530952565E-02
(PID.TID 0000.0001)  cg2d: iter=     5 ; resid.=  4.64866939519108E-02
(PID.TID 0000.0001)  cg2d: iter=     6 ; resid.=  4.03430092885878E-02
(PID.TID 0000.0001)  cg2d: iter=     7 ; resid.=  3.67172612087292E-02
(PID.TID 0000.0001)  cg2d: iter=     8 ; resid.=  2.98298483236912E-02
(PID.TID 0000.0001)  cg2d: iter=     9 ; resid.=  2.17376345154276E-02
(PID.TID 0000.0001)  cg2d: iter=    10 ; resid.=  1.69399410033759E-02
(PID.TID 0000.0001)  cg2d: iter=    11 ; resid.=  1.35398250669118E-02
(PID.TID 0000.0001)  cg2d: iter=    12 ; resid.=  1.12829608547395E-02
(PID.TID 0000.0001)  cg2d: iter=    13 ; resid.=  9.52169080620937E-03
(PID.TID 0000.0001)  cg2d: iter=    14 ; resid.=  7.78780523593699E-03
(PID.TID 0000.0001)  cg2d: iter=    15 ; resid.=  6.47286302929802E-03
(PID.TID 0000.0001)  cg2d: iter=    16 ; resid.=  5.25338612156153E-03
(PID.TID 0000.0001)  cg2d: iter=    17 ; resid.=  4.82255318565610E-03
(PID.TID 0000.0001)  cg2d: iter=    18 ; resid.=  4.29005958951627E-03
(PID.TID 0000.0001)  cg2d: iter=    19 ; resid.=  3.35553576502655E-03
(PID.TID 0000.0001)  cg2d: iter=    20 ; resid.=  2.85262786101579E-03
(PID.TID 0000.0001)  cg2d: iter=    21 ; resid.=  2.39464562114759E-03
(PID.TID 0000.0001)  cg2d: iter=    22 ; resid.=  2.17454537316108E-03
(PID.TID 0000.0001)  cg2d: iter=    23 ; resid.=  1.83920181113180E-03
(PID.TID 0000.0001)  cg2d: iter=    24 ; resid.=  1.41395369034535E-03
(PID.TID 0000.0001)  cg2d: iter=    25 ; resid.=  1.13376331867594E-03
(PID.TID 0000.0001)  cg2d: iter=    26 ; resid.=  8.41963336056073E-04
(PID.TID 0000.0001)  cg2d: iter=    27 ; resid.=  6.84596685077658E-04
(PID.TID 0000.0001)  cg2d: iter=    28 ; resid.=  5.72931449853299E-04
(PID.TID 0000.0001)  cg2d: iter=    29 ; resid.=  4.88768897484757E-04
(PID.TID 0000.0001)  cg2d: iter=    30 ; resid.=  3.94451995166157E-04
(PID.TID 0000.0001)  cg2d: iter=    31 ; resid.=  3.05162506802363E-04
(PID.TID 0000.0001)  cg2d: iter=    32 ; resid.=  2.30392638593258E-04
(PID.TID 0000.0001)  cg2d: iter=    33 ; resid.=  1.74537435143844E-04
(PID.TID 0000.0001)  cg2d: iter=    34 ; resid.=  1.45483541903150E-04
(PID.TID 0000.0001)  cg2d: iter=    35 ; resid.=  1.26407172214046E-04
(PID.TID 0000.0001)  cg2d: iter=    36 ; resid.=  1.05617556021633E-04
(PID.TID 0000.0001)  cg2d: iter=    37 ; resid.=  9.32600337689361E-05
(PID.TID 0000.0001)  cg2d: iter=    38 ; resid.=  7.77704808443109E-05
(PID.TID 0000.0001)  cg2d: iter=    39 ; resid.=  6.56236394626760E-05
(PID.TID 0000.0001)  cg2d: iter=    40 ; resid.=  5.45325462891798E-05
(PID.TID 0000.0001)  cg2d: iter=    41 ; resid.=  4.16056959428163E-05
(PID.TID 0000.0001)  cg2d: iter=    42 ; resid.=  3.23471247406621E-05
(PID.TID 0000.0001)  cg2d: iter=    43 ; resid.=  2.67623837028404E-05
(PID.TID 0000.0001)  cg2d: iter=    44 ; resid.=  2.35782752506789E-05
(PID.TID 0000.0001)  cg2d: iter=    45 ; resid.=  2.03376774248317E-05
(PID.TID 0000.0001)  cg2d: iter=    46 ; resid.=  1.59026300858211E-05
(PID.TID 0000.0001)  cg2d: iter=    47 ; resid.=  1.15992491548016E-05
(PID.TID 0000.0001)  cg2d: iter=    48 ; resid.=  9.22661465319240E-06
(PID.TID 0000.0001)  cg2d: iter=    49 ; resid.=  7.53891605207171E-06
(PID.TID 0000.0001)  cg2d: iter=    50 ; resid.=  5.97320786263281E-06
(PID.TID 0000.0001)  cg2d: iter=    51 ; resid.=  4.79321656279335E-06
(PID.TID 0000.0001)  cg2d: iter=    52 ; resid.=  4.00700075527884E-06
(PID.TID 0000.0001)  cg2d: iter=    53 ; resid.=  3.76585180446990E-06
(PID.TID 0000.0001)  cg2d: iter=    54 ; resid.=  3.27425900959000E-06
(PID.TID 0000.0001)  cg2d: iter=    55 ; resid.=  2.94929990926870E-06
(PID.TID 0000.0001)  cg2d: iter=    56 ; resid.=  2.52796204869423E-06
(PID.TID 0000.0001)  cg2d: iter=    57 ; resid.=  2.09786047130729E-06
(PID.TID 0000.0001)  cg2d: iter=    58 ; resid.=  1.67111301418954E-06
(PID.TID 0000.0001)  cg2d: iter=    59 ; resid.=  1.16865791045960E-06
(PID.TID 0000.0001)  cg2d: iter=    60 ; resid.=  9.79759506506609E-07
(PID.TID 0000.0001)  cg2d: iter=    61 ; resid.=  8.24914915993052E-07
(PID.TID 0000.0001)  cg2d: iter=    62 ; resid.=  7.07744547178783E-07
(PID.TID 0000.0001)  cg2d: iter=    63 ; resid.=  5.66854279574147E-07
(PID.TID 0000.0001)  cg2d: iter=    64 ; resid.=  4.36707436322120E-07
(PID.TID 0000.0001)  cg2d: iter=    65 ; resid.=  3.67559192041678E-07
(PID.TID 0000.0001)  cg2d: iter=    66 ; resid.=  2.94985553412311E-07
(PID.TID 0000.0001)  cg2d: iter=    67 ; resid.=  2.27422632839371E-07
(PID.TID 0000.0001)  cg2d: iter=    68 ; resid.=  1.89253705409042E-07
(PID.TID 0000.0001)  cg2d: iter=    69 ; resid.=  1.64065686218846E-07
(PID.TID 0000.0001)  cg2d: iter=    70 ; resid.=  1.42732487724603E-07
(PID.TID 0000.0001)  cg2d: iter=    71 ; resid.=  1.14605887562608E-07
(PID.TID 0000.0001)  cg2d: iter=    72 ; resid.=  9.92896971850300E-08
(PID.TID 0000.0001)  cg2d: iter=    73 ; resid.=  8.50592957900976E-08
(PID.TID 0000.0001)  cg2d: iter=    74 ; resid.=  7.35716609028839E-08
(PID.TID 0000.0001)  cg2d: iter=    75 ; resid.=  6.60637885179602E-08
(PID.TID 0000.0001)  cg2d: iter=    76 ; resid.=  6.13982619220164E-08
(PID.TID 0000.0001)  cg2d: iter=    77 ; resid.=  5.31344535026851E-08
(PID.TID 0000.0001)  cg2d: iter=    78 ; resid.=  4.91899794114820E-08
(PID.TID 0000.0001)  cg2d: iter=    79 ; resid.=  4.18912479651950E-08
(PID.TID 0000.0001)  cg2d: iter=    80 ; resid.=  3.46600009460780E-08
(PID.TID 0000.0001)  cg2d: iter=    81 ; resid.=  2.60715245423933E-08
(PID.TID 0000.0001)  cg2d: iter=    82 ; resid.=  1.82440888353350E-08
(PID.TID 0000.0001)  cg2d: iter=    83 ; resid.=  1.45974000324594E-08
(PID.TID 0000.0001)  cg2d: iter=    84 ; resid.=  1.24464950528133E-08
(PID.TID 0000.0001)  cg2d: iter=    85 ; resid.=  9.49484469143107E-09
(PID.TID 0000.0001)  cg2d: iter=    86 ; resid.=  7.06602777692877E-09
(PID.TID 0000.0001)  cg2d: iter=    87 ; resid.=  5.69646677772369E-09
(PID.TID 0000.0001)  cg2d: iter=    88 ; resid.=  4.71578907081766E-09
(PID.TID 0000.0001)  cg2d: iter=    89 ; resid.=  3.67556422336381E-09
(PID.TID 0000.0001)  cg2d: iter=    90 ; resid.=  2.96106617379553E-09
(PID.TID 0000.0001)  cg2d: iter=    91 ; resid.=  2.37550715232062E-09
(PID.TID 0000.0001)  cg2d: iter=    92 ; resid.=  2.13887924936319E-09
(PID.TID 0000.0001)  cg2d: iter=    93 ; resid.=  1.63680973415151E-09
(PID.TID 0000.0001)  cg2d: iter=    94 ; resid.=  1.25167961925615E-09
(PID.TID 0000.0001)  cg2d: iter=    95 ; resid.=  1.05371103711786E-09
(PID.TID 0000.0001)  cg2d: iter=    96 ; resid.=  8.19902304903615E-10
(PID.TID 0000.0001)  cg2d: iter=    97 ; resid.=  6.40295921266701E-10
(PID.TID 0000.0001)  cg2d: iter=    98 ; resid.=  5.12913950679406E-10
(PID.TID 0000.0001)  cg2d: iter=    99 ; resid.=  4.52677742892885E-10
(PID.TID 0000.0001)  cg2d: iter=   100 ; resid.=  3.89182187772400E-10
(PID.TID 0000.0001)  cg2d: iter=   101 ; resid.=  3.22520733372459E-10
(PID.TID 0000.0001)  cg2d: iter=   102 ; resid.=  2.66414051113584E-10
(PID.TID 0000.0001)  cg2d: iter=   103 ; resid.=  2.07108136480183E-10
(PID.TID 0000.0001)  cg2d: iter=   104 ; resid.=  1.72233658912736E-10
(PID.TID 0000.0001)  cg2d: iter=   105 ; resid.=  1.43867299031855E-10
(PID.TID 0000.0001)  cg2d: iter=   106 ; resid.=  1.10557519179714E-10
(PID.TID 0000.0001)  cg2d: iter=   107 ; resid.=  7.61398345090906E-11
(PID.TID 0000.0001)  cg2d: iter=   108 ; resid.=  5.90823019574438E-11
(PID.TID 0000.0001)  cg2d: iter=   109 ; resid.=  4.55374821052510E-11
(PID.TID 0000.0001)  cg2d: iter=   110 ; resid.=  3.57665903842553E-11
(PID.TID 0000.0001)  cg2d: iter=   111 ; resid.=  2.88897558877975E-11
(PID.TID 0000.0001)  cg2d: iter=   112 ; resid.=  2.08688588590899E-11
(PID.TID 0000.0001)  cg2d: iter=   113 ; resid.=  1.37153535756340E-11
(PID.TID 0000.0001)  cg2d: iter=   114 ; resid.=  9.92351862719916E-12
(PID.TID 0000.0001)  cg2d: iter=   115 ; resid.=  7.15443440839335E-12
(PID.TID 0000.0001)  cg2d: iter=   116 ; resid.=  5.33305660152927E-12
(PID.TID 0000.0001)  cg2d: iter=   117 ; resid.=  4.10149108387763E-12
(PID.TID 0000.0001)  cg2d: iter=   118 ; resid.=  3.16318395147416E-12
(PID.TID 0000.0001)  cg2d: iter=   119 ; resid.=  2.52837276628237E-12
(PID.TID 0000.0001)  cg2d: iter=   120 ; resid.=  2.13114596858787E-12
(PID.TID 0000.0001)  cg2d: iter=   121 ; resid.=  1.61798499630820E-12
(PID.TID 0000.0001)  cg2d: iter=   122 ; resid.=  1.26868717523643E-12
(PID.TID 0000.0001)  cg2d: iter=   123 ; resid.=  9.50655820751339E-13
(PID.TID 0000.0001)  cg2d: iter=   124 ; resid.=  7.30040808425153E-13
(PID.TID 0000.0001)  cg2d: iter=   125 ; resid.=  5.59884052542052E-13
(PID.TID 0000.0001)  cg2d: iter=   126 ; resid.=  4.15870866734486E-13
(PID.TID 0000.0001)  cg2d: iter=   127 ; resid.=  2.88871321920977E-13
(PID.TID 0000.0001)  cg2d: iter=   128 ; resid.=  2.00813325049496E-13
(PID.TID 0000.0001)  cg2d: iter=   129 ; resid.=  1.22751286322912E-13
(PID.TID 0000.0001)  cg2d: iter=   130 ; resid.=  8.13704151531724E-14
DEBUG_STATS_RL:    cg2d_x (SOLVE_FOR_PRESSURE)  min= -1.94021751608513E+01
DEBUG_STATS_RL:    cg2d_x (SOLVE_FOR_PRESSURE)  max=  9.70816356291604E+00
DEBUG_STATS_RL:    cg2d_x (SOLVE_FOR_PRESSURE) mean= -1.93411754594619E+00
DEBUG_STATS_RL:    cg2d_x (SOLVE_FOR_PRESSURE) S.D.=  7.48042072335430E+00
(PID.TID 0000.0001)      cg2d_init_res =   2.05547805790237E-01
(PID.TID 0000.0001)      cg2d_iters(min,last) =      -1     130
(PID.TID 0000.0001)      cg2d_last_res =   8.13704151531724E-14
(PID.TID 0000.0001) // =======================================================
(PID.TID 0000.0001) // Begin MONITOR dynamic field statistics
(PID.TID 0000.0001) // =======================================================
(PID.TID 0000.0001) %MON time_tsnumber                =                    84
(PID.TID 0000.0001) %MON time_secondsf                =   7.2576000000000E+06
(PID.TID 0000.0001) %MON dynstat_eta_max              =   9.8961911956330E-01
(PID.TID 0000.0001) %MON dynstat_eta_min              =  -1.9777956331144E+00
(PID.TID 0000.0001) %MON dynstat_eta_mean             =  -5.6275329800224E-03
(PID.TID 0000.0001) %MON dynstat_eta_sd               =   6.6363986424236E-01
(PID.TID 0000.0001) %MON dynstat_eta_del2             =   2.5087544008456E-03
(PID.TID 0000.0001) %MON dynstat_uvel_max             =   1.5878139976043E-01
(PID.TID 0000.0001) %MON dynstat_uvel_min             =  -1.3234383005018E-01
(PID.TID 0000.0001) %MON dynstat_uvel_mean            =   2.5206122641913E-03
(PID.TID 0000.0001) %MON dynstat_uvel_sd              =   1.4447376224297E-02
(PID.TID 0000.0001) %MON dynstat_uvel_del2            =   9.2073571926917E-05
(PID.TID 0000.0001) %MON dynstat_vvel_max             =   1.3305937000755E-01
(PID.TID 0000.0001) %MON dynstat_vvel_min             =  -8.4985854497789E-02
(PID.TID 0000.0001) %MON dynstat_vvel_mean            =   1.7045670399323E-05
(PID.TID 0000.0001) %MON dynstat_vvel_sd              =   8.2054826857476E-03
(PID.TID 0000.0001) %MON dynstat_vvel_del2            =   7.4876384414160E-05
(PID.TID 0000.0001) %MON dynstat_wvel_max             =   1.8311652278375E-04
(PID.TID 0000.0001) %MON dynstat_wvel_min             =  -6.3690035895757E-05
(PID.TID 0000.0001) %MON dynstat_wvel_mean            =   4.1371327804562E-22
(PID.TID 0000.0001) %MON dynstat_wvel_sd              =   1.0252837704108E-05
(PID.TID 0000.0001) %MON dynstat_wvel_del2            =   1.0197120280352E-07
(PID.TID 0000.0001) %MON dynstat_theta_max            =   3.1106684336008E+01
(PID.TID 0000.0001) %MON dynstat_theta_min            =  -1.9403858048500E+00
(PID.TID 0000.0001) %MON dynstat_theta_mean           =   3.6341784399936E+00
(PID.TID 0000.0001) %MON dynstat_theta_sd             =   4.4281223178587E+00
(PID.TID 0000.0001) %MON dynstat_theta_del2           =   4.8401462014125E-03
(PID.TID 0000.0001) %MON dynstat_salt_max             =   3.7472216298223E+01
(PID.TID 0000.0001) %MON dynstat_salt_min             =   2.9931794235903E+01
(PID.TID 0000.0001) %MON dynstat_salt_mean            =   3.4728010126983E+01
(PID.TID 0000.0001) %MON dynstat_salt_sd              =   2.9662389785899E-01
(PID.TID 0000.0001) %MON dynstat_salt_del2            =   9.9560322766738E-04
(PID.TID 0000.0001) %MON dynstat_sst_max              =   3.1106684336008E+01
(PID.TID 0000.0001) %MON dynstat_sst_min              =  -1.9403858048500E+00
(PID.TID 0000.0001) %MON dynstat_sst_mean             =   1.9067774667659E+01
(PID.TID 0000.0001) %MON dynstat_sst_sd               =   9.2093580067209E+00
(PID.TID 0000.0001) %MON dynstat_sst_del2             =   2.9073371599345E-02
(PID.TID 0000.0001) %MON dynstat_sss_max              =   3.7472163642350E+01
(PID.TID 0000.0001) %MON dynstat_sss_min              =   2.9931794235903E+01
(PID.TID 0000.0001) %MON dynstat_sss_mean             =   3.4847762997864E+01
(PID.TID 0000.0001) %MON dynstat_sss_sd               =   9.8833533645646E-01
(PID.TID 0000.0001) %MON dynstat_sss_del2             =   8.2441621893096E-03
(PID.TID 0000.0001) %MON forcing_qnet_max             =   2.3686581217448E+02
(PID.TID 0000.0001) %MON forcing_qnet_min             =  -1.6043162027995E+02
(PID.TID 0000.0001) %MON forcing_qnet_mean            =  -4.0887745583875E+00
(PID.TID 0000.0001) %MON forcing_qnet_sd              =   4.0727838671898E+01
(PID.TID 0000.0001) %MON forcing_qnet_del2            =   8.0254510514999E-01
(PID.TID 0000.0001) %MON forcing_qsw_max              =   0.0000000000000E+00
(PID.TID 0000.0001) %MON forcing_qsw_min              =   0.0000000000000E+00
(PID.TID 0000.0001) %MON forcing_qsw_mean             =   0.0000000000000E+00
(PID.TID 0000.0001) %MON forcing_qsw_sd               =   0.0000000000000E+00
(PID.TID 0000.0001) %MON forcing_qsw_del2             =   0.0000000000000E+00
(PID.TID 0000.0001) %MON forcing_empmr_max            =   6.8339453681195E-05
(PID.TID 0000.0001) %MON forcing_empmr_min            =  -8.3383186222363E-05
(PID.TID 0000.0001) %MON forcing_empmr_mean           =   3.7114813505816E-07
(PID.TID 0000.0001) %MON forcing_empmr_sd             =   2.5803474193734E-05
(PID.TID 0000.0001) %MON forcing_empmr_del2           =   3.6306311996696E-07
(PID.TID 0000.0001) %MON forcing_fu_max               =   3.5133404135704E-01
(PID.TID 0000.0001) %MON forcing_fu_min               =  -3.9602099657059E-01
(PID.TID 0000.0001) %MON forcing_fu_mean              =   1.9439192524925E-02
(PID.TID 0000.0001) %MON forcing_fu_sd                =   1.0051726632131E-01
(PID.TID 0000.0001) %MON forcing_fu_del2              =   7.9144391050227E-04
(PID.TID 0000.0001) %MON forcing_fv_max               =   1.8253233631452E-01
(PID.TID 0000.0001) %MON forcing_fv_min               =  -1.6606992681821E-01
(PID.TID 0000.0001) %MON forcing_fv_mean              =  -7.2377620610603E-03
(PID.TID 0000.0001) %MON forcing_fv_sd                =   3.9899607945901E-02
(PID.TID 0000.0001) %MON forcing_fv_del2              =   4.4280534116419E-04
(PID.TID 0000.0001) %MON trAdv_CFL_u_max              =   4.1433183457132E-02
(PID.TID 0000.0001) %MON trAdv_CFL_v_max              =   2.5505059560755E-02
(PID.TID 0000.0001) %MON trAdv_CFL_w_max              =   4.1597658876607E-02
(PID.TID 0000.0001) %MON advcfl_uvel_max              =   4.1510992700707E-02
(PID.TID 0000.0001) %MON advcfl_vvel_max              =   2.5851301576736E-02
(PID.TID 0000.0001) %MON advcfl_wvel_max              =   4.3345938543880E-02
(PID.TID 0000.0001) %MON advcfl_W_hf_max              =   4.6533139907401E-02
(PID.TID 0000.0001) %MON pe_b_mean                    =   5.6360827319043E-04
(PID.TID 0000.0001) %MON ke_max                       =   1.2606312866571E-02
(PID.TID 0000.0001) %MON ke_mean                      =   1.2794166895133E-04
(PID.TID 0000.0001) %MON ke_vol                       =   1.3226782436723E+18
(PID.TID 0000.0001) %MON vort_r_min                   =  -3.7942868334678E-07
(PID.TID 0000.0001) %MON vort_r_max                   =   3.8758452759586E-07
(PID.TID 0000.0001) %MON vort_a_mean                  =  -2.5274807040426E-05
(PID.TID 0000.0001) %MON vort_a_sd                    =   7.3604670565980E-05
(PID.TID 0000.0001) %MON vort_p_mean                  =  -3.1845655349629E-05
(PID.TID 0000.0001) %MON vort_p_sd                    =   1.3162503789606E-04
(PID.TID 0000.0001) %MON surfExpan_theta_mean         =  -1.7529886389870E-07
(PID.TID 0000.0001) %MON surfExpan_salt_mean          =   8.0303269930320E-08
(PID.TID 0000.0001) // =======================================================
(PID.TID 0000.0001) // End MONITOR dynamic field statistics
(PID.TID 0000.0001) // =======================================================
 EXTERNAL_FIELDS_LOAD,        84 : iP,iLd,i0,i1=    3    4    3    4 ; Wght=  0.7000000000  0.3000000000
 EXTERNAL_FIELDS_LOAD: (fu0,1),fu,fv= -2.7199E-02 -3.7252E-02 -3.0215E-02 -1.0969E-02
 EXTERNAL_FIELDS_LOAD: SST,SSS,Q,E-P= -1.1813E-01  3.4576E+01  1.8201E+02  8.6873E-06
DEBUG_STATS_RL:          Uvel (THERMODYNAMICS)  min= -1.32343830050176E-01
DEBUG_STATS_RL:          Uvel (THERMODYNAMICS)  max=  1.58781399760430E-01
DEBUG_STATS_RL:          Uvel (THERMODYNAMICS) mean=  6.21116101492868E-03
DEBUG_STATS_RL:          Uvel (THERMODYNAMICS) S.D.=  2.22862569971196E-02
DEBUG_STATS_RL:          Vvel (THERMODYNAMICS)  min= -8.49858544977894E-02
DEBUG_STATS_RL:          Vvel (THERMODYNAMICS)  max=  1.33059370007550E-01
DEBUG_STATS_RL:          Vvel (THERMODYNAMICS) mean=  1.07093389690269E-03
DEBUG_STATS_RL:          Vvel (THERMODYNAMICS) S.D.=  1.33104731781168E-02
DEBUG_STATS_RL:          Wvel (THERMODYNAMICS)  min= -6.36900358957567E-05
DEBUG_STATS_RL:          Wvel (THERMODYNAMICS)  max=  1.83116522783753E-04
DEBUG_STATS_RL:          Wvel (THERMODYNAMICS) mean=  4.32511389698967E-09
DEBUG_STATS_RL:          Wvel (THERMODYNAMICS) S.D.=  9.12372655257834E-06
DEBUG_STATS_RL:         Theta (THERMODYNAMICS)  min= -1.93925329688735E+00
DEBUG_STATS_RL:         Theta (THERMODYNAMICS)  max=  3.11261976457065E+01
DEBUG_STATS_RL:         Theta (THERMODYNAMICS) mean=  3.23101457449427E+00
DEBUG_STATS_RL:         Theta (THERMODYNAMICS) S.D.=  5.88808571960610E+00
DEBUG_STATS_RL:          Salt (THERMODYNAMICS)  min=  9.99999999999997E-03
DEBUG_STATS_RL:          Salt (THERMODYNAMICS)  max=  3.74727375657201E+01
DEBUG_STATS_RL:          Salt (THERMODYNAMICS) mean=  1.88547787881117E+01
DEBUG_STATS_RL:          Salt (THERMODYNAMICS) S.D.=  1.73003303196805E+01
DEBUG_STATS_RL:         GtNm1 (THERMODYNAMICS)  min= -3.78457797442292E-06
DEBUG_STATS_RL:         GtNm1 (THERMODYNAMICS)  max=  2.49317481526053E-06
DEBUG_STATS_RL:         GtNm1 (THERMODYNAMICS) mean= -6.61702739448397E-10
DEBUG_STATS_RL:         GtNm1 (THERMODYNAMICS) S.D.=  1.44619750590266E-07
DEBUG_STATS_RL:         GsNm1 (THERMODYNAMICS)  min= -7.14421490500882E-07
DEBUG_STATS_RL:         GsNm1 (THERMODYNAMICS)  max=  4.73898071201213E-07
DEBUG_STATS_RL:         GsNm1 (THERMODYNAMICS) mean= -7.94112620741768E-11
DEBUG_STATS_RL:         GsNm1 (THERMODYNAMICS) S.D.=  1.47196083180782E-08
DEBUG_STATS_RL:                EtaN (DYNAMICS)  min= -1.97779563311439E+00
DEBUG_STATS_RL:                EtaN (DYNAMICS)  max=  9.89619119563304E-01
DEBUG_STATS_RL:                EtaN (DYNAMICS) mean= -1.97157751880345E-01
DEBUG_STATS_RL:                EtaN (DYNAMICS) S.D.=  7.62530145092185E-01
DEBUG_STATS_RL:                Uvel (DYNAMICS)  min= -1.32343830050176E-01
DEBUG_STATS_RL:                Uvel (DYNAMICS)  max=  1.58781399760430E-01
DEBUG_STATS_RL:                Uvel (DYNAMICS) mean=  6.21116101492868E-03
DEBUG_STATS_RL:                Uvel (DYNAMICS) S.D.=  2.22862569971196E-02
DEBUG_STATS_RL:                Vvel (DYNAMICS)  min= -8.49858544977894E-02
DEBUG_STATS_RL:                Vvel (DYNAMICS)  max=  1.33059370007550E-01
DEBUG_STATS_RL:                Vvel (DYNAMICS) mean=  1.07093389690269E-03
DEBUG_STATS_RL:                Vvel (DYNAMICS) S.D.=  1.33104731781168E-02
DEBUG_STATS_RL:                Wvel (DYNAMICS)  min= -6.36900358957567E-05
DEBUG_STATS_RL:                Wvel (DYNAMICS)  max=  1.83116522783753E-04
DEBUG_STATS_RL:                Wvel (DYNAMICS) mean=  4.32511389698967E-09
DEBUG_STATS_RL:                Wvel (DYNAMICS) S.D.=  9.12372655257834E-06
DEBUG_STATS_RL:               Theta (DYNAMICS)  min= -1.93925329688735E+00
DEBUG_STATS_RL:               Theta (DYNAMICS)  max=  3.11261976457065E+01
DEBUG_STATS_RL:               Theta (DYNAMICS) mean=  3.23101457449427E+00
DEBUG_STATS_RL:               Theta (DYNAMICS) S.D.=  5.88808571960610E+00
DEBUG_STATS_RL:                Salt (DYNAMICS)  min=  9.99999999999997E-03
DEBUG_STATS_RL:                Salt (DYNAMICS)  max=  3.74727375657201E+01
DEBUG_STATS_RL:                Salt (DYNAMICS) mean=  1.88547787881117E+01
DEBUG_STATS_RL:                Salt (DYNAMICS) S.D.=  1.73003303196805E+01
DEBUG_STATS_RL:                  Gu (DYNAMICS)  min= -1.31445571824354E-01
DEBUG_STATS_RL:                  Gu (DYNAMICS)  max=  1.62807290164205E-01
DEBUG_STATS_RL:                  Gu (DYNAMICS) mean=  6.15804404394626E-03
DEBUG_STATS_RL:                  Gu (DYNAMICS) S.D.=  2.26125640326383E-02
DEBUG_STATS_RL:                  Gv (DYNAMICS)  min= -9.02189715953797E-02
DEBUG_STATS_RL:                  Gv (DYNAMICS)  max=  1.33386978807194E-01
DEBUG_STATS_RL:                  Gv (DYNAMICS) mean=  3.64299656803541E-03
DEBUG_STATS_RL:                  Gv (DYNAMICS) S.D.=  1.48845125513004E-02
DEBUG_STATS_RL:               GuNm1 (DYNAMICS)  min= -1.01627353994954E-05
DEBUG_STATS_RL:               GuNm1 (DYNAMICS)  max=  9.21369948982281E-06
DEBUG_STATS_RL:               GuNm1 (DYNAMICS) mean=  1.10640800677416E-08
DEBUG_STATS_RL:               GuNm1 (DYNAMICS) S.D.=  1.22370777347431E-06
DEBUG_STATS_RL:               GvNm1 (DYNAMICS)  min= -9.42941084362626E-06
DEBUG_STATS_RL:               GvNm1 (DYNAMICS)  max=  1.54122110172800E-05
DEBUG_STATS_RL:               GvNm1 (DYNAMICS) mean=  7.37648174554711E-07
DEBUG_STATS_RL:               GvNm1 (DYNAMICS) S.D.=  2.61028986740870E-06
DEBUG_STATS_RL:               GtNm1 (DYNAMICS)  min= -3.78457797442292E-06
DEBUG_STATS_RL:               GtNm1 (DYNAMICS)  max=  2.49317481526053E-06
DEBUG_STATS_RL:               GtNm1 (DYNAMICS) mean= -6.61702739448397E-10
DEBUG_STATS_RL:               GtNm1 (DYNAMICS) S.D.=  1.44619750590266E-07
DEBUG_STATS_RL:               GsNm1 (DYNAMICS)  min= -7.14421490500882E-07
DEBUG_STATS_RL:               GsNm1 (DYNAMICS)  max=  4.73898071201213E-07
DEBUG_STATS_RL:               GsNm1 (DYNAMICS) mean= -7.94112620741768E-11
DEBUG_STATS_RL:               GsNm1 (DYNAMICS) S.D.=  1.47196083180782E-08
DEBUG_STATS_RL:    cg2d_b (SOLVE_FOR_PRESSURE)  min= -2.78437338655514E+04
DEBUG_STATS_RL:    cg2d_b (SOLVE_FOR_PRESSURE)  max=  2.93683606043991E+04
DEBUG_STATS_RL:    cg2d_b (SOLVE_FOR_PRESSURE) mean=  5.42147994457291E+00
DEBUG_STATS_RL:    cg2d_b (SOLVE_FOR_PRESSURE) S.D.=  3.97893202791013E+03
 cg2d: Sum(rhs),rhsMax =   4.27355351589012E-01  1.92899255610073E+00
(PID.TID 0000.0001)  cg2d: iter=     1 ; resid.=  7.41691819260617E-02
(PID.TID 0000.0001)  cg2d: iter=     2 ; resid.=  5.72730365679967E-02
(PID.TID 0000.0001)  cg2d: iter=     3 ; resid.=  5.72874485985953E-02
(PID.TID 0000.0001)  cg2d: iter=     4 ; resid.=  5.71730785717527E-02
(PID.TID 0000.0001)  cg2d: iter=     5 ; resid.=  4.83948810871105E-02
(PID.TID 0000.0001)  cg2d: iter=     6 ; resid.=  4.32221596302032E-02
(PID.TID 0000.0001)  cg2d: iter=     7 ; resid.=  3.85475916155203E-02
(PID.TID 0000.0001)  cg2d: iter=     8 ; resid.=  3.01701897667217E-02
(PID.TID 0000.0001)  cg2d: iter=     9 ; resid.=  2.13701398275764E-02
(PID.TID 0000.0001)  cg2d: iter=    10 ; resid.=  1.64832107961643E-02
(PID.TID 0000.0001)  cg2d: iter=    11 ; resid.=  1.33126560103205E-02
(PID.TID 0000.0001)  cg2d: iter=    12 ; resid.=  1.11092307843737E-02
(PID.TID 0000.0001)  cg2d: iter=    13 ; resid.=  9.54218631942689E-03
(PID.TID 0000.0001)  cg2d: iter=    14 ; resid.=  7.90838056801814E-03
(PID.TID 0000.0001)  cg2d: iter=    15 ; resid.=  6.59783541424103E-03
(PID.TID 0000.0001)  cg2d: iter=    16 ; resid.=  5.45984192573846E-03
(PID.TID 0000.0001)  cg2d: iter=    17 ; resid.=  5.05528635097691E-03
(PID.TID 0000.0001)  cg2d: iter=    18 ; resid.=  4.42118591666511E-03
(PID.TID 0000.0001)  cg2d: iter=    19 ; resid.=  3.41214491325872E-03
(PID.TID 0000.0001)  cg2d: iter=    20 ; resid.=  2.87293429853087E-03
(PID.TID 0000.0001)  cg2d: iter=    21 ; resid.=  2.40330955246657E-03
(PID.TID 0000.0001)  cg2d: iter=    22 ; resid.=  2.17314711788288E-03
(PID.TID 0000.0001)  cg2d: iter=    23 ; resid.=  1.82695719152884E-03
(PID.TID 0000.0001)  cg2d: iter=    24 ; resid.=  1.43982719589200E-03
(PID.TID 0000.0001)  cg2d: iter=    25 ; resid.=  1.15772412928435E-03
(PID.TID 0000.0001)  cg2d: iter=    26 ; resid.=  8.48615635107986E-04
(PID.TID 0000.0001)  cg2d: iter=    27 ; resid.=  6.84090573862156E-04
(PID.TID 0000.0001)  cg2d: iter=    28 ; resid.=  5.66199810175372E-04
(PID.TID 0000.0001)  cg2d: iter=    29 ; resid.=  4.84849023027947E-04
(PID.TID 0000.0001)  cg2d: iter=    30 ; resid.=  3.94179729721403E-04
(PID.TID 0000.0001)  cg2d: iter=    31 ; resid.=  3.08605737492673E-04
(PID.TID 0000.0001)  cg2d: iter=    32 ; resid.=  2.35154956158491E-04
(PID.TID 0000.0001)  cg2d: iter=    33 ; resid.=  1.76274940442531E-04
(PID.TID 0000.0001)  cg2d: iter=    34 ; resid.=  1.47976129602974E-04
(PID.TID 0000.0001)  cg2d: iter=    35 ; resid.=  1.30286128856660E-04
(PID.TID 0000.0001)  cg2d: iter=    36 ; resid.=  1.08206191963717E-04
(PID.TID 0000.0001)  cg2d: iter=    37 ; resid.=  9.56790890361728E-05
(PID.TID 0000.0001)  cg2d: iter=    38 ; resid.=  7.97226872701175E-05
(PID.TID 0000.0001)  cg2d: iter=    39 ; resid.=  6.77610646064122E-05
(PID.TID 0000.0001)  cg2d: iter=    40 ; resid.=  5.60328199420425E-05
(PID.TID 0000.0001)  cg2d: iter=    41 ; resid.=  4.24685208464214E-05
(PID.TID 0000.0001)  cg2d: iter=    42 ; resid.=  3.27892651508249E-05
(PID.TID 0000.0001)  cg2d: iter=    43 ; resid.=  2.69421739067380E-05
(PID.TID 0000.0001)  cg2d: iter=    44 ; resid.=  2.33364175060385E-05
(PID.TID 0000.0001)  cg2d: iter=    45 ; resid.=  2.02586799935408E-05
(PID.TID 0000.0001)  cg2d: iter=    46 ; resid.=  1.59107796772037E-05
(PID.TID 0000.0001)  cg2d: iter=    47 ; resid.=  1.16821891042795E-05
(PID.TID 0000.0001)  cg2d: iter=    48 ; resid.=  9.26288514725898E-06
(PID.TID 0000.0001)  cg2d: iter=    49 ; resid.=  7.65343678949292E-06
(PID.TID 0000.0001)  cg2d: iter=    50 ; resid.=  6.11097817263223E-06
(PID.TID 0000.0001)  cg2d: iter=    51 ; resid.=  4.93206114952328E-06
(PID.TID 0000.0001)  cg2d: iter=    52 ; resid.=  4.15797377976322E-06
(PID.TID 0000.0001)  cg2d: iter=    53 ; resid.=  3.90060043372183E-06
(PID.TID 0000.0001)  cg2d: iter=    54 ; resid.=  3.33071235036879E-06
(PID.TID 0000.0001)  cg2d: iter=    55 ; resid.=  2.92204820065163E-06
(PID.TID 0000.0001)  cg2d: iter=    56 ; resid.=  2.48136211513845E-06
(PID.TID 0000.0001)  cg2d: iter=    57 ; resid.=  2.04935176181750E-06
(PID.TID 0000.0001)  cg2d: iter=    58 ; resid.=  1.62683453132132E-06
(PID.TID 0000.0001)  cg2d: iter=    59 ; resid.=  1.13103953921663E-06
(PID.TID 0000.0001)  cg2d: iter=    60 ; resid.=  9.50699822468143E-07
(PID.TID 0000.0001)  cg2d: iter=    61 ; resid.=  8.03530229295312E-07
(PID.TID 0000.0001)  cg2d: iter=    62 ; resid.=  7.01482657209993E-07
(PID.TID 0000.0001)  cg2d: iter=    63 ; resid.=  5.67202421275451E-07
(PID.TID 0000.0001)  cg2d: iter=    64 ; resid.=  4.35026105867749E-07
(PID.TID 0000.0001)  cg2d: iter=    65 ; resid.=  3.59008618884579E-07
(PID.TID 0000.0001)  cg2d: iter=    66 ; resid.=  2.82747033757967E-07
(PID.TID 0000.0001)  cg2d: iter=    67 ; resid.=  2.11802623462482E-07
(PID.TID 0000.0001)  cg2d: iter=    68 ; resid.=  1.71077729375354E-07
(PID.TID 0000.0001)  cg2d: iter=    69 ; resid.=  1.41852398383519E-07
(PID.TID 0000.0001)  cg2d: iter=    70 ; resid.=  1.18122223280705E-07
(PID.TID 0000.0001)  cg2d: iter=    71 ; resid.=  9.18791978571704E-08
(PID.TID 0000.0001)  cg2d: iter=    72 ; resid.=  7.66892521322837E-08
(PID.TID 0000.0001)  cg2d: iter=    73 ; resid.=  6.29052464353666E-08
(PID.TID 0000.0001)  cg2d: iter=    74 ; resid.=  5.19023108077483E-08
(PID.TID 0000.0001)  cg2d: iter=    75 ; resid.=  4.54344041816847E-08
(PID.TID 0000.0001)  cg2d: iter=    76 ; resid.=  4.25242887393036E-08
(PID.TID 0000.0001)  cg2d: iter=    77 ; resid.=  3.75144103735453E-08
(PID.TID 0000.0001)  cg2d: iter=    78 ; resid.=  3.65848375902649E-08
(PID.TID 0000.0001)  cg2d: iter=    79 ; resid.=  3.35201715446234E-08
(PID.TID 0000.0001)  cg2d: iter=    80 ; resid.=  2.96191853294313E-08
(PID.TID 0000.0001)  cg2d: iter=    81 ; resid.=  2.34238270320802E-08
(PID.TID 0000.0001)  cg2d: iter=    82 ; resid.=  1.68071382656100E-08
(PID.TID 0000.0001)  cg2d: iter=    83 ; resid.=  1.37246519722476E-08
(PID.TID 0000.0001)  cg2d: iter=    84 ; resid.=  1.18116614433263E-08
(PID.TID 0000.0001)  cg2d: iter=    85 ; resid.=  9.18448815107944E-09
(PID.TID 0000.0001)  cg2d: iter=    86 ; resid.=  7.03614114743784E-09
(PID.TID 0000.0001)  cg2d: iter=    87 ; resid.=  5.82336643289142E-09
(PID.TID 0000.0001)  cg2d: iter=    88 ; resid.=  4.88365052363178E-09
(PID.TID 0000.0001)  cg2d: iter=    89 ; resid.=  3.83641254577702E-09
(PID.TID 0000.0001)  cg2d: iter=    90 ; resid.=  3.07915629641130E-09
(PID.TID 0000.0001)  cg2d: iter=    91 ; resid.=  2.44274086112993E-09
(PID.TID 0000.0001)  cg2d: iter=    92 ; resid.=  2.15908674158535E-09
(PID.TID 0000.0001)  cg2d: iter=    93 ; resid.=  1.66736687378717E-09
(PID.TID 0000.0001)  cg2d: iter=    94 ; resid.=  1.29032016746366E-09
(PID.TID 0000.0001)  cg2d: iter=    95 ; resid.=  1.08882043998799E-09
(PID.TID 0000.0001)  cg2d: iter=    96 ; resid.=  8.42531528092285E-10
(PID.TID 0000.0001)  cg2d: iter=    97 ; resid.=  6.47803195543718E-10
(PID.TID 0000.0001)  cg2d: iter=    98 ; resid.=  5.19322436904290E-10
(PID.TID 0000.0001)  cg2d: iter=    99 ; resid.=  4.59634355305081E-10
(PID.TID 0000.0001)  cg2d: iter=   100 ; resid.=  4.05050068237972E-10
(PID.TID 0000.0001)  cg2d: iter=   101 ; resid.=  3.45139892928024E-10
(PID.TID 0000.0001)  cg2d: iter=   102 ; resid.=  2.84983956882369E-10
(PID.TID 0000.0001)  cg2d: iter=   103 ; resid.=  2.20431127444578E-10
(PID.TID 0000.0001)  cg2d: iter=   104 ; resid.=  1.81061491038401E-10
(PID.TID 0000.0001)  cg2d: iter=   105 ; resid.=  1.47538542022911E-10
(PID.TID 0000.0001)  cg2d: iter=   106 ; resid.=  1.09353521201884E-10
(PID.TID 0000.0001)  cg2d: iter=   107 ; resid.=  7.32729283850176E-11
(PID.TID 0000.0001)  cg2d: iter=   108 ; resid.=  5.52581469170714E-11
(PID.TID 0000.0001)  cg2d: iter=   109 ; resid.=  4.25548422464056E-11
(PID.TID 0000.0001)  cg2d: iter=   110 ; resid.=  3.40142850956789E-11
(PID.TID 0000.0001)  cg2d: iter=   111 ; resid.=  2.79341008583787E-11
(PID.TID 0000.0001)  cg2d: iter=   112 ; resid.=  2.07293175205975E-11
(PID.TID 0000.0001)  cg2d: iter=   113 ; resid.=  1.34830590792583E-11
(PID.TID 0000.0001)  cg2d: iter=   114 ; resid.=  9.61811946590699E-12
(PID.TID 0000.0001)  cg2d: iter=   115 ; resid.=  6.83821458441403E-12
(PID.TID 0000.0001)  cg2d: iter=   116 ; resid.=  5.03449791224509E-12
(PID.TID 0000.0001)  cg2d: iter=   117 ; resid.=  3.86852588686551E-12
(PID.TID 0000.0001)  cg2d: iter=   118 ; resid.=  3.05709727006518E-12
(PID.TID 0000.0001)  cg2d: iter=   119 ; resid.=  2.51517013426228E-12
(PID.TID 0000.0001)  cg2d: iter=   120 ; resid.=  2.21386076851979E-12
(PID.TID 0000.0001)  cg2d: iter=   121 ; resid.=  1.68798881531982E-12
(PID.TID 0000.0001)  cg2d: iter=   122 ; resid.=  1.26221609638271E-12
(PID.TID 0000.0001)  cg2d: iter=   123 ; resid.=  9.08340335688245E-13
(PID.TID 0000.0001)  cg2d: iter=   124 ; resid.=  6.67400831439833E-13
(PID.TID 0000.0001)  cg2d: iter=   125 ; resid.=  4.90391796653095E-13
(PID.TID 0000.0001)  cg2d: iter=   126 ; resid.=  3.63266548220135E-13
(PID.TID 0000.0001)  cg2d: iter=   127 ; resid.=  2.52526788604857E-13
(PID.TID 0000.0001)  cg2d: iter=   128 ; resid.=  1.87026009849795E-13
(PID.TID 0000.0001)  cg2d: iter=   129 ; resid.=  1.20712667662547E-13
(PID.TID 0000.0001)  cg2d: iter=   130 ; resid.=  8.19189799323162E-14
DEBUG_STATS_RL:    cg2d_x (SOLVE_FOR_PRESSURE)  min= -1.93595061695686E+01
DEBUG_STATS_RL:    cg2d_x (SOLVE_FOR_PRESSURE)  max=  9.55575949832838E+00
DEBUG_STATS_RL:    cg2d_x (SOLVE_FOR_PRESSURE) mean= -1.92513155189184E+00
DEBUG_STATS_RL:    cg2d_x (SOLVE_FOR_PRESSURE) S.D.=  7.41644393222816E+00
(PID.TID 0000.0001)      cg2d_init_res =   2.03012381690673E-01
(PID.TID 0000.0001)      cg2d_iters(min,last) =      -1     130
(PID.TID 0000.0001)      cg2d_last_res =   8.19189799323162E-14
(PID.TID 0000.0001) // =======================================================
(PID.TID 0000.0001) // Begin MONITOR dynamic field statistics
(PID.TID 0000.0001) // =======================================================
(PID.TID 0000.0001) %MON time_tsnumber                =                    85
(PID.TID 0000.0001) %MON time_secondsf                =   7.3440000000000E+06
(PID.TID 0000.0001) %MON dynstat_eta_max              =   9.7408353703650E-01
(PID.TID 0000.0001) %MON dynstat_eta_min              =  -1.9734460927186E+00
(PID.TID 0000.0001) %MON dynstat_eta_mean             =  -5.6566420808418E-03
(PID.TID 0000.0001) %MON dynstat_eta_sd               =   6.5636523675842E-01
(PID.TID 0000.0001) %MON dynstat_eta_del2             =   2.5150640329306E-03
(PID.TID 0000.0001) %MON dynstat_uvel_max             =   1.5813605815349E-01
(PID.TID 0000.0001) %MON dynstat_uvel_min             =  -1.3327651290012E-01
(PID.TID 0000.0001) %MON dynstat_uvel_mean            =   2.5114711472716E-03
(PID.TID 0000.0001) %MON dynstat_uvel_sd              =   1.4410477467695E-02
(PID.TID 0000.0001) %MON dynstat_uvel_del2            =   9.2279693049310E-05
(PID.TID 0000.0001) %MON dynstat_vvel_max             =   1.3432580058955E-01
(PID.TID 0000.0001) %MON dynstat_vvel_min             =  -8.5527622318364E-02
(PID.TID 0000.0001) %MON dynstat_vvel_mean            =   2.5200781431495E-05
(PID.TID 0000.0001) %MON dynstat_vvel_sd              =   8.1761944960949E-03
(PID.TID 0000.0001) %MON dynstat_vvel_del2            =   7.4952900734258E-05
(PID.TID 0000.0001) %MON dynstat_wvel_max             =   1.7722970513278E-04
(PID.TID 0000.0001) %MON dynstat_wvel_min             =  -6.2888064140051E-05
(PID.TID 0000.0001) %MON dynstat_wvel_mean            =   2.5918722858100E-24
(PID.TID 0000.0001) %MON dynstat_wvel_sd              =   1.0161208341535E-05
(PID.TID 0000.0001) %MON dynstat_wvel_del2            =   1.0076787103868E-07
(PID.TID 0000.0001) %MON dynstat_theta_max            =   3.1126197645706E+01
(PID.TID 0000.0001) %MON dynstat_theta_min            =  -1.9392532968873E+00
(PID.TID 0000.0001) %MON dynstat_theta_mean           =   3.6342025013303E+00
(PID.TID 0000.0001) %MON dynstat_theta_sd             =   4.4282570764916E+00
(PID.TID 0000.0001) %MON dynstat_theta_del2           =   4.8382239199181E-03
(PID.TID 0000.0001) %MON dynstat_salt_max             =   3.7472737565720E+01
(PID.TID 0000.0001) %MON dynstat_salt_min             =   2.9934922309992E+01
(PID.TID 0000.0001) %MON dynstat_salt_mean            =   3.4728008760523E+01
(PID.TID 0000.0001) %MON dynstat_salt_sd              =   2.9662799083765E-01
(PID.TID 0000.0001) %MON dynstat_salt_del2            =   9.9617335584906E-04
(PID.TID 0000.0001) %MON dynstat_sst_max              =   3.1126197645706E+01
(PID.TID 0000.0001) %MON dynstat_sst_min              =  -1.9392532968873E+00
(PID.TID 0000.0001) %MON dynstat_sst_mean             =   1.9066857737913E+01
(PID.TID 0000.0001) %MON dynstat_sst_sd               =   9.2169424072458E+00
(PID.TID 0000.0001) %MON dynstat_sst_del2             =   2.9124425637081E-02
(PID.TID 0000.0001) %MON dynstat_sss_max              =   3.7472737565720E+01
(PID.TID 0000.0001) %MON dynstat_sss_min              =   2.9934922309992E+01
(PID.TID 0000.0001) %MON dynstat_sss_mean             =   3.4847699839929E+01
(PID.TID 0000.0001) %MON dynstat_sss_sd               =   9.8872418808796E-01
(PID.TID 0000.0001) %MON dynstat_sss_del2             =   8.2569895682546E-03
(PID.TID 0000.0001) %MON forcing_qnet_max             =   2.3216057739258E+02
(PID.TID 0000.0001) %MON forcing_qnet_min             =  -1.6000362396240E+02
(PID.TID 0000.0001) %MON forcing_qnet_mean            =  -3.6917381294179E+00
(PID.TID 0000.0001) %MON forcing_qnet_sd              =   4.0304657455292E+01
(PID.TID 0000.0001) %MON forcing_qnet_del2            =   7.9840269608377E-01
(PID.TID 0000.0001) %MON forcing_qsw_max              =   0.0000000000000E+00
(PID.TID 0000.0001) %MON forcing_qsw_min              =   0.0000000000000E+00
(PID.TID 0000.0001) %MON forcing_qsw_mean             =   0.0000000000000E+00
(PID.TID 0000.0001) %MON forcing_qsw_sd               =   0.0000000000000E+00
(PID.TID 0000.0001) %MON forcing_qsw_del2             =   0.0000000000000E+00
(PID.TID 0000.0001) %MON forcing_empmr_max            =   6.8243282669300E-05
(PID.TID 0000.0001) %MON forcing_empmr_min            =  -8.3398032302284E-05
(PID.TID 0000.0001) %MON forcing_empmr_mean           =   3.4870277023059E-07
(PID.TID 0000.0001) %MON forcing_empmr_sd             =   2.5758635590810E-05
(PID.TID 0000.0001) %MON forcing_empmr_del2           =   3.6296797063557E-07
(PID.TID 0000.0001) %MON forcing_fu_max               =   3.5084198713303E-01
(PID.TID 0000.0001) %MON forcing_fu_min               =  -3.9695406854153E-01
(PID.TID 0000.0001) %MON forcing_fu_mean              =   1.9312000427992E-02
(PID.TID 0000.0001) %MON forcing_fu_sd                =   1.0042160540531E-01
(PID.TID 0000.0001) %MON forcing_fu_del2              =   7.8721937053415E-04
(PID.TID 0000.0001) %MON forcing_fv_max               =   1.8243633508682E-01
(PID.TID 0000.0001) %MON forcing_fv_min               =  -1.6266221404076E-01
(PID.TID 0000.0001) %MON forcing_fv_mean              =  -7.2012853886873E-03
(PID.TID 0000.0001) %MON forcing_fv_sd                =   3.9658030881186E-02
(PID.TID 0000.0001) %MON forcing_fv_del2              =   4.3709035920482E-04
(PID.TID 0000.0001) %MON trAdv_CFL_u_max              =   4.1519423880216E-02
(PID.TID 0000.0001) %MON trAdv_CFL_v_max              =   2.5809289221109E-02
(PID.TID 0000.0001) %MON trAdv_CFL_w_max              =   4.0567352739785E-02
(PID.TID 0000.0001) %MON advcfl_uvel_max              =   4.1342277909330E-02
(PID.TID 0000.0001) %MON advcfl_vvel_max              =   2.6097348727715E-02
(PID.TID 0000.0001) %MON advcfl_wvel_max              =   4.1952456228690E-02
(PID.TID 0000.0001) %MON advcfl_W_hf_max              =   4.5037195657270E-02
(PID.TID 0000.0001) %MON pe_b_mean                    =   5.5132107926595E-04
(PID.TID 0000.0001) %MON ke_max                       =   1.2538325339607E-02
(PID.TID 0000.0001) %MON ke_mean                      =   1.2722176367998E-04
(PID.TID 0000.0001) %MON ke_vol                       =   1.3226782436723E+18
(PID.TID 0000.0001) %MON vort_r_min                   =  -3.7667271966087E-07
(PID.TID 0000.0001) %MON vort_r_max                   =   3.8544293686968E-07
(PID.TID 0000.0001) %MON vort_a_mean                  =  -2.5274807071293E-05
(PID.TID 0000.0001) %MON vort_a_sd                    =   7.3604668424633E-05
(PID.TID 0000.0001) %MON vort_p_mean                  =  -3.1845655388521E-05
(PID.TID 0000.0001) %MON vort_p_sd                    =   1.3162499646234E-04
(PID.TID 0000.0001) %MON surfExpan_theta_mean         =  -1.9545526970589E-07
(PID.TID 0000.0001) %MON surfExpan_salt_mean          =   8.4882731679303E-08
(PID.TID 0000.0001) // =======================================================
(PID.TID 0000.0001) // End MONITOR dynamic field statistics
(PID.TID 0000.0001) // =======================================================
 EXTERNAL_FIELDS_LOAD,        85 : iP,iLd,i0,i1=    3    4    3    4 ; Wght=  0.6666666667  0.3333333333
 EXTERNAL_FIELDS_LOAD: (fu0,1),fu,fv= -2.7199E-02 -3.7252E-02 -3.0550E-02 -1.2124E-02
 EXTERNAL_FIELDS_LOAD: SST,SSS,Q,E-P= -1.1082E-01  3.4576E+01  1.7830E+02  8.6435E-06
DEBUG_STATS_RL:          Uvel (THERMODYNAMICS)  min= -1.33276512900116E-01
DEBUG_STATS_RL:          Uvel (THERMODYNAMICS)  max=  1.58136058153491E-01
DEBUG_STATS_RL:          Uvel (THERMODYNAMICS) mean=  6.17309611442720E-03
DEBUG_STATS_RL:          Uvel (THERMODYNAMICS) S.D.=  2.22306754673217E-02
DEBUG_STATS_RL:          Vvel (THERMODYNAMICS)  min= -8.55276223183639E-02
DEBUG_STATS_RL:          Vvel (THERMODYNAMICS)  max=  1.34325800589555E-01
DEBUG_STATS_RL:          Vvel (THERMODYNAMICS) mean=  1.06074777875593E-03
DEBUG_STATS_RL:          Vvel (THERMODYNAMICS) S.D.=  1.32568750312079E-02
DEBUG_STATS_RL:          Wvel (THERMODYNAMICS)  min= -6.28880641400505E-05
DEBUG_STATS_RL:          Wvel (THERMODYNAMICS)  max=  1.77229705132776E-04
DEBUG_STATS_RL:          Wvel (THERMODYNAMICS) mean= -5.60269050883305E-10
DEBUG_STATS_RL:          Wvel (THERMODYNAMICS) S.D.=  9.03241499097141E-06
DEBUG_STATS_RL:         Theta (THERMODYNAMICS)  min= -1.93811999190951E+00
DEBUG_STATS_RL:         Theta (THERMODYNAMICS)  max=  3.11449709929729E+01
DEBUG_STATS_RL:         Theta (THERMODYNAMICS) mean=  3.23092265004502E+00
DEBUG_STATS_RL:         Theta (THERMODYNAMICS) S.D.=  5.88831107347639E+00
DEBUG_STATS_RL:          Salt (THERMODYNAMICS)  min=  9.99999999999997E-03
DEBUG_STATS_RL:          Salt (THERMODYNAMICS)  max=  3.74733203478889E+01
DEBUG_STATS_RL:          Salt (THERMODYNAMICS) mean=  1.88547757028967E+01
DEBUG_STATS_RL:          Salt (THERMODYNAMICS) S.D.=  1.73003282974644E+01
DEBUG_STATS_RL:         GtNm1 (THERMODYNAMICS)  min= -3.67158387653006E-06
DEBUG_STATS_RL:         GtNm1 (THERMODYNAMICS)  max=  1.99079577457987E-06
DEBUG_STATS_RL:         GtNm1 (THERMODYNAMICS) mean= -8.83347562259095E-10
DEBUG_STATS_RL:         GtNm1 (THERMODYNAMICS) S.D.=  1.41404092330510E-07
DEBUG_STATS_RL:         GsNm1 (THERMODYNAMICS)  min= -5.84225407580508E-07
DEBUG_STATS_RL:         GsNm1 (THERMODYNAMICS)  max=  3.76807439531100E-07
DEBUG_STATS_RL:         GsNm1 (THERMODYNAMICS) mean= -1.12497562118336E-10
DEBUG_STATS_RL:         GsNm1 (THERMODYNAMICS) S.D.=  1.41072826857433E-08
DEBUG_STATS_RL:                EtaN (DYNAMICS)  min= -1.97344609271864E+00
DEBUG_STATS_RL:                EtaN (DYNAMICS)  max=  9.74083537036503E-01
DEBUG_STATS_RL:                EtaN (DYNAMICS) mean= -1.96241748408954E-01
DEBUG_STATS_RL:                EtaN (DYNAMICS) S.D.=  7.56008555782691E-01
DEBUG_STATS_RL:                Uvel (DYNAMICS)  min= -1.33276512900116E-01
DEBUG_STATS_RL:                Uvel (DYNAMICS)  max=  1.58136058153491E-01
DEBUG_STATS_RL:                Uvel (DYNAMICS) mean=  6.17309611442720E-03
DEBUG_STATS_RL:                Uvel (DYNAMICS) S.D.=  2.22306754673217E-02
DEBUG_STATS_RL:                Vvel (DYNAMICS)  min= -8.55276223183639E-02
DEBUG_STATS_RL:                Vvel (DYNAMICS)  max=  1.34325800589555E-01
DEBUG_STATS_RL:                Vvel (DYNAMICS) mean=  1.06074777875593E-03
DEBUG_STATS_RL:                Vvel (DYNAMICS) S.D.=  1.32568750312079E-02
DEBUG_STATS_RL:                Wvel (DYNAMICS)  min= -6.28880641400505E-05
DEBUG_STATS_RL:                Wvel (DYNAMICS)  max=  1.77229705132776E-04
DEBUG_STATS_RL:                Wvel (DYNAMICS) mean= -5.60269050883305E-10
DEBUG_STATS_RL:                Wvel (DYNAMICS) S.D.=  9.03241499097141E-06
DEBUG_STATS_RL:               Theta (DYNAMICS)  min= -1.93811999190951E+00
DEBUG_STATS_RL:               Theta (DYNAMICS)  max=  3.11449709929729E+01
DEBUG_STATS_RL:               Theta (DYNAMICS) mean=  3.23092265004502E+00
DEBUG_STATS_RL:               Theta (DYNAMICS) S.D.=  5.88831107347639E+00
DEBUG_STATS_RL:                Salt (DYNAMICS)  min=  9.99999999999997E-03
DEBUG_STATS_RL:                Salt (DYNAMICS)  max=  3.74733203478889E+01
DEBUG_STATS_RL:                Salt (DYNAMICS) mean=  1.88547757028967E+01
DEBUG_STATS_RL:                Salt (DYNAMICS) S.D.=  1.73003282974644E+01
DEBUG_STATS_RL:                  Gu (DYNAMICS)  min= -1.32359269651142E-01
DEBUG_STATS_RL:                  Gu (DYNAMICS)  max=  1.61224342938547E-01
DEBUG_STATS_RL:                  Gu (DYNAMICS) mean=  6.11857000142555E-03
DEBUG_STATS_RL:                  Gu (DYNAMICS) S.D.=  2.25606290494976E-02
DEBUG_STATS_RL:                  Gv (DYNAMICS)  min= -8.92011585531557E-02
DEBUG_STATS_RL:                  Gv (DYNAMICS)  max=  1.34612550996441E-01
DEBUG_STATS_RL:                  Gv (DYNAMICS) mean=  3.62292681036044E-03
DEBUG_STATS_RL:                  Gv (DYNAMICS) S.D.=  1.48341709462326E-02
DEBUG_STATS_RL:               GuNm1 (DYNAMICS)  min= -1.01023921723887E-05
DEBUG_STATS_RL:               GuNm1 (DYNAMICS)  max=  9.19074289633273E-06
DEBUG_STATS_RL:               GuNm1 (DYNAMICS) mean=  1.15624824007502E-08
DEBUG_STATS_RL:               GuNm1 (DYNAMICS) S.D.=  1.22417571102456E-06
DEBUG_STATS_RL:               GvNm1 (DYNAMICS)  min= -9.39528730240777E-06
DEBUG_STATS_RL:               GvNm1 (DYNAMICS)  max=  1.53762265610243E-05
DEBUG_STATS_RL:               GvNm1 (DYNAMICS) mean=  7.37786267275774E-07
DEBUG_STATS_RL:               GvNm1 (DYNAMICS) S.D.=  2.60925366735538E-06
DEBUG_STATS_RL:               GtNm1 (DYNAMICS)  min= -3.67158387653006E-06
DEBUG_STATS_RL:               GtNm1 (DYNAMICS)  max=  1.99079577457987E-06
DEBUG_STATS_RL:               GtNm1 (DYNAMICS) mean= -8.83347562259095E-10
DEBUG_STATS_RL:               GtNm1 (DYNAMICS) S.D.=  1.41404092330510E-07
DEBUG_STATS_RL:               GsNm1 (DYNAMICS)  min= -5.84225407580508E-07
DEBUG_STATS_RL:               GsNm1 (DYNAMICS)  max=  3.76807439531100E-07
DEBUG_STATS_RL:               GsNm1 (DYNAMICS) mean= -1.12497562118336E-10
DEBUG_STATS_RL:               GsNm1 (DYNAMICS) S.D.=  1.41072826857433E-08
DEBUG_STATS_RL:    cg2d_b (SOLVE_FOR_PRESSURE)  min= -2.81692011259777E+04
DEBUG_STATS_RL:    cg2d_b (SOLVE_FOR_PRESSURE)  max=  2.96638572508810E+04
DEBUG_STATS_RL:    cg2d_b (SOLVE_FOR_PRESSURE) mean=  5.44758309501112E+00
DEBUG_STATS_RL:    cg2d_b (SOLVE_FOR_PRESSURE) S.D.=  3.98263417953426E+03
 cg2d: Sum(rhs),rhsMax =   4.25135367875232E-01  1.94840156701198E+00
(PID.TID 0000.0001)  cg2d: iter=     1 ; resid.=  7.30181059375853E-02
(PID.TID 0000.0001)  cg2d: iter=     2 ; resid.=  5.75630471435975E-02
(PID.TID 0000.0001)  cg2d: iter=     3 ; resid.=  5.84217655098373E-02
(PID.TID 0000.0001)  cg2d: iter=     4 ; resid.=  5.77158932098044E-02
(PID.TID 0000.0001)  cg2d: iter=     5 ; resid.=  4.92466804228075E-02
(PID.TID 0000.0001)  cg2d: iter=     6 ; resid.=  4.51718214156766E-02
(PID.TID 0000.0001)  cg2d: iter=     7 ; resid.=  3.93087623234511E-02
(PID.TID 0000.0001)  cg2d: iter=     8 ; resid.=  2.98577438877328E-02
(PID.TID 0000.0001)  cg2d: iter=     9 ; resid.=  2.08025280783774E-02
(PID.TID 0000.0001)  cg2d: iter=    10 ; resid.=  1.58824512691427E-02
(PID.TID 0000.0001)  cg2d: iter=    11 ; resid.=  1.29241111540575E-02
(PID.TID 0000.0001)  cg2d: iter=    12 ; resid.=  1.08038402919814E-02
(PID.TID 0000.0001)  cg2d: iter=    13 ; resid.=  9.42892566795568E-03
(PID.TID 0000.0001)  cg2d: iter=    14 ; resid.=  7.94191019270245E-03
(PID.TID 0000.0001)  cg2d: iter=    15 ; resid.=  6.63953449941659E-03
(PID.TID 0000.0001)  cg2d: iter=    16 ; resid.=  5.57456749331302E-03
(PID.TID 0000.0001)  cg2d: iter=    17 ; resid.=  5.17766840215832E-03
(PID.TID 0000.0001)  cg2d: iter=    18 ; resid.=  4.44715770153401E-03
(PID.TID 0000.0001)  cg2d: iter=    19 ; resid.=  3.40366895641816E-03
(PID.TID 0000.0001)  cg2d: iter=    20 ; resid.=  2.83314571959761E-03
(PID.TID 0000.0001)  cg2d: iter=    21 ; resid.=  2.35307068552020E-03
(PID.TID 0000.0001)  cg2d: iter=    22 ; resid.=  2.12328358822698E-03
(PID.TID 0000.0001)  cg2d: iter=    23 ; resid.=  1.78437916762173E-03
(PID.TID 0000.0001)  cg2d: iter=    24 ; resid.=  1.44761285262090E-03
(PID.TID 0000.0001)  cg2d: iter=    25 ; resid.=  1.16858222967787E-03
(PID.TID 0000.0001)  cg2d: iter=    26 ; resid.=  8.47055310416785E-04
(PID.TID 0000.0001)  cg2d: iter=    27 ; resid.=  6.75766832817581E-04
(PID.TID 0000.0001)  cg2d: iter=    28 ; resid.=  5.51235666426676E-04
(PID.TID 0000.0001)  cg2d: iter=    29 ; resid.=  4.70978467468131E-04
(PID.TID 0000.0001)  cg2d: iter=    30 ; resid.=  3.86621744172980E-04
(PID.TID 0000.0001)  cg2d: iter=    31 ; resid.=  3.08383933088225E-04
(PID.TID 0000.0001)  cg2d: iter=    32 ; resid.=  2.37868816263558E-04
(PID.TID 0000.0001)  cg2d: iter=    33 ; resid.=  1.77263430728036E-04
(PID.TID 0000.0001)  cg2d: iter=    34 ; resid.=  1.49895337540956E-04
(PID.TID 0000.0001)  cg2d: iter=    35 ; resid.=  1.32988286896542E-04
(PID.TID 0000.0001)  cg2d: iter=    36 ; resid.=  1.09525325005165E-04
(PID.TID 0000.0001)  cg2d: iter=    37 ; resid.=  9.67622609414066E-05
(PID.TID 0000.0001)  cg2d: iter=    38 ; resid.=  8.07624538808936E-05
(PID.TID 0000.0001)  cg2d: iter=    39 ; resid.=  6.91597067034702E-05
(PID.TID 0000.0001)  cg2d: iter=    40 ; resid.=  5.70537375547969E-05
(PID.TID 0000.0001)  cg2d: iter=    41 ; resid.=  4.34024842493765E-05
(PID.TID 0000.0001)  cg2d: iter=    42 ; resid.=  3.35854433678888E-05
(PID.TID 0000.0001)  cg2d: iter=    43 ; resid.=  2.75633921664297E-05
(PID.TID 0000.0001)  cg2d: iter=    44 ; resid.=  2.34877027300062E-05
(PID.TID 0000.0001)  cg2d: iter=    45 ; resid.=  2.05089910117837E-05
(PID.TID 0000.0001)  cg2d: iter=    46 ; resid.=  1.62717962657683E-05
(PID.TID 0000.0001)  cg2d: iter=    47 ; resid.=  1.21367055322796E-05
(PID.TID 0000.0001)  cg2d: iter=    48 ; resid.=  9.78789079980874E-06
(PID.TID 0000.0001)  cg2d: iter=    49 ; resid.=  8.34458069411515E-06
(PID.TID 0000.0001)  cg2d: iter=    50 ; resid.=  6.81436562818571E-06
(PID.TID 0000.0001)  cg2d: iter=    51 ; resid.=  5.62310833155513E-06
(PID.TID 0000.0001)  cg2d: iter=    52 ; resid.=  4.86225001285179E-06
(PID.TID 0000.0001)  cg2d: iter=    53 ; resid.=  4.57823838315451E-06
(PID.TID 0000.0001)  cg2d: iter=    54 ; resid.=  3.84073708128938E-06
(PID.TID 0000.0001)  cg2d: iter=    55 ; resid.=  3.29175889227521E-06
(PID.TID 0000.0001)  cg2d: iter=    56 ; resid.=  2.80575251928334E-06
(PID.TID 0000.0001)  cg2d: iter=    57 ; resid.=  2.35104617167657E-06
(PID.TID 0000.0001)  cg2d: iter=    58 ; resid.=  1.88080316703680E-06
(PID.TID 0000.0001)  cg2d: iter=    59 ; resid.=  1.34598461714921E-06
(PID.TID 0000.0001)  cg2d: iter=    60 ; resid.=  1.17396236026488E-06
(PID.TID 0000.0001)  cg2d: iter=    61 ; resid.=  1.01910846784263E-06
(PID.TID 0000.0001)  cg2d: iter=    62 ; resid.=  9.08067790441555E-07
(PID.TID 0000.0001)  cg2d: iter=    63 ; resid.=  7.47734402376041E-07
(PID.TID 0000.0001)  cg2d: iter=    64 ; resid.=  5.87187193463917E-07
(PID.TID 0000.0001)  cg2d: iter=    65 ; resid.=  4.93185514197725E-07
(PID.TID 0000.0001)  cg2d: iter=    66 ; resid.=  4.01109421249440E-07
(PID.TID 0000.0001)  cg2d: iter=    67 ; resid.=  3.16863655565215E-07
(PID.TID 0000.0001)  cg2d: iter=    68 ; resid.=  2.74634728351926E-07
(PID.TID 0000.0001)  cg2d: iter=    69 ; resid.=  2.39125686124303E-07
(PID.TID 0000.0001)  cg2d: iter=    70 ; resid.=  2.06097233103304E-07
(PID.TID 0000.0001)  cg2d: iter=    71 ; resid.=  1.70073342350907E-07
(PID.TID 0000.0001)  cg2d: iter=    72 ; resid.=  1.51459673975112E-07
(PID.TID 0000.0001)  cg2d: iter=    73 ; resid.=  1.29999444243896E-07
(PID.TID 0000.0001)  cg2d: iter=    74 ; resid.=  1.12478471607549E-07
(PID.TID 0000.0001)  cg2d: iter=    75 ; resid.=  1.01571974486352E-07
(PID.TID 0000.0001)  cg2d: iter=    76 ; resid.=  9.06257661343327E-08
(PID.TID 0000.0001)  cg2d: iter=    77 ; resid.=  7.36257166862777E-08
(PID.TID 0000.0001)  cg2d: iter=    78 ; resid.=  6.45085304558574E-08
(PID.TID 0000.0001)  cg2d: iter=    79 ; resid.=  5.20236967198389E-08
(PID.TID 0000.0001)  cg2d: iter=    80 ; resid.=  4.07315565202099E-08
(PID.TID 0000.0001)  cg2d: iter=    81 ; resid.=  2.96257775127783E-08
(PID.TID 0000.0001)  cg2d: iter=    82 ; resid.=  2.02448738389399E-08
(PID.TID 0000.0001)  cg2d: iter=    83 ; resid.=  1.60326158144550E-08
(PID.TID 0000.0001)  cg2d: iter=    84 ; resid.=  1.31335002282357E-08
(PID.TID 0000.0001)  cg2d: iter=    85 ; resid.=  9.86054342576361E-09
(PID.TID 0000.0001)  cg2d: iter=    86 ; resid.=  7.44359927520056E-09
(PID.TID 0000.0001)  cg2d: iter=    87 ; resid.=  6.13280224800287E-09
(PID.TID 0000.0001)  cg2d: iter=    88 ; resid.=  5.12074167803380E-09
(PID.TID 0000.0001)  cg2d: iter=    89 ; resid.=  4.08840955601433E-09
(PID.TID 0000.0001)  cg2d: iter=    90 ; resid.=  3.32041465179924E-09
(PID.TID 0000.0001)  cg2d: iter=    91 ; resid.=  2.61269918953650E-09
(PID.TID 0000.0001)  cg2d: iter=    92 ; resid.=  2.23503134403451E-09
(PID.TID 0000.0001)  cg2d: iter=    93 ; resid.=  1.69896368362286E-09
(PID.TID 0000.0001)  cg2d: iter=    94 ; resid.=  1.31176286680916E-09
(PID.TID 0000.0001)  cg2d: iter=    95 ; resid.=  1.09547027192659E-09
(PID.TID 0000.0001)  cg2d: iter=    96 ; resid.=  8.40268390449710E-10
(PID.TID 0000.0001)  cg2d: iter=    97 ; resid.=  6.45103672477138E-10
(PID.TID 0000.0001)  cg2d: iter=    98 ; resid.=  5.26258432242116E-10
(PID.TID 0000.0001)  cg2d: iter=    99 ; resid.=  4.72092537014425E-10
(PID.TID 0000.0001)  cg2d: iter=   100 ; resid.=  4.21066329051884E-10
(PID.TID 0000.0001)  cg2d: iter=   101 ; resid.=  3.59537101840768E-10
(PID.TID 0000.0001)  cg2d: iter=   102 ; resid.=  2.90624014647503E-10
(PID.TID 0000.0001)  cg2d: iter=   103 ; resid.=  2.23043710691758E-10
(PID.TID 0000.0001)  cg2d: iter=   104 ; resid.=  1.82801611028617E-10
(PID.TID 0000.0001)  cg2d: iter=   105 ; resid.=  1.48016981214483E-10
(PID.TID 0000.0001)  cg2d: iter=   106 ; resid.=  1.07648770273786E-10
(PID.TID 0000.0001)  cg2d: iter=   107 ; resid.=  7.17791535875333E-11
(PID.TID 0000.0001)  cg2d: iter=   108 ; resid.=  5.29594979155326E-11
(PID.TID 0000.0001)  cg2d: iter=   109 ; resid.=  3.98171264139706E-11
(PID.TID 0000.0001)  cg2d: iter=   110 ; resid.=  3.12784946482357E-11
(PID.TID 0000.0001)  cg2d: iter=   111 ; resid.=  2.54817094153806E-11
(PID.TID 0000.0001)  cg2d: iter=   112 ; resid.=  1.94191171002598E-11
(PID.TID 0000.0001)  cg2d: iter=   113 ; resid.=  1.28102000813078E-11
(PID.TID 0000.0001)  cg2d: iter=   114 ; resid.=  9.42644864519635E-12
(PID.TID 0000.0001)  cg2d: iter=   115 ; resid.=  6.97216866578347E-12
(PID.TID 0000.0001)  cg2d: iter=   116 ; resid.=  5.26867002441566E-12
(PID.TID 0000.0001)  cg2d: iter=   117 ; resid.=  4.06923144835692E-12
(PID.TID 0000.0001)  cg2d: iter=   118 ; resid.=  3.18131611797040E-12
(PID.TID 0000.0001)  cg2d: iter=   119 ; resid.=  2.50661361649098E-12
(PID.TID 0000.0001)  cg2d: iter=   120 ; resid.=  2.13336658599735E-12
(PID.TID 0000.0001)  cg2d: iter=   121 ; resid.=  1.61550971483255E-12
(PID.TID 0000.0001)  cg2d: iter=   122 ; resid.=  1.20866985508156E-12
(PID.TID 0000.0001)  cg2d: iter=   123 ; resid.=  9.12424448602264E-13
(PID.TID 0000.0001)  cg2d: iter=   124 ; resid.=  7.01615317642924E-13
(PID.TID 0000.0001)  cg2d: iter=   125 ; resid.=  5.24830942122970E-13
(PID.TID 0000.0001)  cg2d: iter=   126 ; resid.=  3.90809985385170E-13
(PID.TID 0000.0001)  cg2d: iter=   127 ; resid.=  2.64058961227915E-13
(PID.TID 0000.0001)  cg2d: iter=   128 ; resid.=  1.93005603951913E-13
(PID.TID 0000.0001)  cg2d: iter=   129 ; resid.=  1.23073130295130E-13
(PID.TID 0000.0001)  cg2d: iter=   130 ; resid.=  8.17628461097805E-14
DEBUG_STATS_RL:    cg2d_x (SOLVE_FOR_PRESSURE)  min= -1.92930619252270E+01
DEBUG_STATS_RL:    cg2d_x (SOLVE_FOR_PRESSURE)  max=  9.39775455672048E+00
DEBUG_STATS_RL:    cg2d_x (SOLVE_FOR_PRESSURE) mean= -1.91546669132675E+00
DEBUG_STATS_RL:    cg2d_x (SOLVE_FOR_PRESSURE) S.D.=  7.35339111531627E+00
(PID.TID 0000.0001)      cg2d_init_res =   2.00788673580678E-01
(PID.TID 0000.0001)      cg2d_iters(min,last) =      -1     130
(PID.TID 0000.0001)      cg2d_last_res =   8.17628461097805E-14
(PID.TID 0000.0001) // =======================================================
(PID.TID 0000.0001) // Begin MONITOR dynamic field statistics
(PID.TID 0000.0001) // =======================================================
(PID.TID 0000.0001) %MON time_tsnumber                =                    86
(PID.TID 0000.0001) %MON time_secondsf                =   7.4304000000000E+06
(PID.TID 0000.0001) %MON dynstat_eta_max              =   9.5797701903371E-01
(PID.TID 0000.0001) %MON dynstat_eta_min              =  -1.9666729791262E+00
(PID.TID 0000.0001) %MON dynstat_eta_mean             =  -5.6838774816405E-03
(PID.TID 0000.0001) %MON dynstat_eta_sd               =   6.4922102090389E-01
(PID.TID 0000.0001) %MON dynstat_eta_del2             =   2.5208117921517E-03
(PID.TID 0000.0001) %MON dynstat_uvel_max             =   1.5658217312374E-01
(PID.TID 0000.0001) %MON dynstat_uvel_min             =  -1.3409028570054E-01
(PID.TID 0000.0001) %MON dynstat_uvel_mean            =   2.4998871678211E-03
(PID.TID 0000.0001) %MON dynstat_uvel_sd              =   1.4371207661007E-02
(PID.TID 0000.0001) %MON dynstat_uvel_del2            =   9.2469562050445E-05
(PID.TID 0000.0001) %MON dynstat_vvel_max             =   1.3528179598295E-01
(PID.TID 0000.0001) %MON dynstat_vvel_min             =  -8.5860666558156E-02
(PID.TID 0000.0001) %MON dynstat_vvel_mean            =   3.2273999978153E-05
(PID.TID 0000.0001) %MON dynstat_vvel_sd              =   8.1473694898479E-03
(PID.TID 0000.0001) %MON dynstat_vvel_del2            =   7.5053191260447E-05
(PID.TID 0000.0001) %MON dynstat_wvel_max             =   1.7044481256923E-04
(PID.TID 0000.0001) %MON dynstat_wvel_min             =  -6.2269260011280E-05
(PID.TID 0000.0001) %MON dynstat_wvel_mean            =   2.1600847125323E-22
(PID.TID 0000.0001) %MON dynstat_wvel_sd              =   1.0069828241247E-05
(PID.TID 0000.0001) %MON dynstat_wvel_del2            =   9.9573425459027E-08
(PID.TID 0000.0001) %MON dynstat_theta_max            =   3.1144970992973E+01
(PID.TID 0000.0001) %MON dynstat_theta_min            =  -1.9381199919095E+00
(PID.TID 0000.0001) %MON dynstat_theta_mean           =   3.6342246691323E+00
(PID.TID 0000.0001) %MON dynstat_theta_sd             =   4.4283832935210E+00
(PID.TID 0000.0001) %MON dynstat_theta_del2           =   4.8357945226529E-03
(PID.TID 0000.0001) %MON dynstat_salt_max             =   3.7473320347889E+01
(PID.TID 0000.0001) %MON dynstat_salt_min             =   2.9938149902407E+01
(PID.TID 0000.0001) %MON dynstat_salt_mean            =   3.4728007300722E+01
(PID.TID 0000.0001) %MON dynstat_salt_sd              =   2.9663192647681E-01
(PID.TID 0000.0001) %MON dynstat_salt_del2            =   9.9663679449390E-04
(PID.TID 0000.0001) %MON dynstat_sst_max              =   3.1144970992973E+01
(PID.TID 0000.0001) %MON dynstat_sst_min              =  -1.9381199919095E+00
(PID.TID 0000.0001) %MON dynstat_sst_mean             =   1.9065576622163E+01
(PID.TID 0000.0001) %MON dynstat_sst_sd               =   9.2245833445313E+00
(PID.TID 0000.0001) %MON dynstat_sst_del2             =   2.9162687815858E-02
(PID.TID 0000.0001) %MON dynstat_sss_max              =   3.7473320347889E+01
(PID.TID 0000.0001) %MON dynstat_sss_min              =   2.9938149902407E+01
(PID.TID 0000.0001) %MON dynstat_sss_mean             =   3.4847606497367E+01
(PID.TID 0000.0001) %MON dynstat_sss_sd               =   9.8913958580130E-01
(PID.TID 0000.0001) %MON dynstat_sss_del2             =   8.2680952879980E-03
(PID.TID 0000.0001) %MON forcing_qnet_max             =   2.2745534261068E+02
(PID.TID 0000.0001) %MON forcing_qnet_min             =  -1.5957562764486E+02
(PID.TID 0000.0001) %MON forcing_qnet_mean            =  -3.2947017004483E+00
(PID.TID 0000.0001) %MON forcing_qnet_sd              =   3.9956383247608E+01
(PID.TID 0000.0001) %MON forcing_qnet_del2            =   7.9475318361249E-01
(PID.TID 0000.0001) %MON forcing_qsw_max              =   0.0000000000000E+00
(PID.TID 0000.0001) %MON forcing_qsw_min              =   0.0000000000000E+00
(PID.TID 0000.0001) %MON forcing_qsw_mean             =   0.0000000000000E+00
(PID.TID 0000.0001) %MON forcing_qsw_sd               =   0.0000000000000E+00
(PID.TID 0000.0001) %MON forcing_qsw_del2             =   0.0000000000000E+00
(PID.TID 0000.0001) %MON forcing_empmr_max            =   6.8147111657405E-05
(PID.TID 0000.0001) %MON forcing_empmr_min            =  -8.3412878382205E-05
(PID.TID 0000.0001) %MON forcing_empmr_mean           =   3.2625740540304E-07
(PID.TID 0000.0001) %MON forcing_empmr_sd             =   2.5717379388333E-05
(PID.TID 0000.0001) %MON forcing_empmr_del2           =   3.6294743074173E-07
(PID.TID 0000.0001) %MON forcing_fu_max               =   3.5034993290901E-01
(PID.TID 0000.0001) %MON forcing_fu_min               =  -3.9788714051247E-01
(PID.TID 0000.0001) %MON forcing_fu_mean              =   1.9184808331060E-02
(PID.TID 0000.0001) %MON forcing_fu_sd                =   1.0034993850227E-01
(PID.TID 0000.0001) %MON forcing_fu_del2              =   7.8368532274322E-04
(PID.TID 0000.0001) %MON forcing_fv_max               =   1.8234033385913E-01
(PID.TID 0000.0001) %MON forcing_fv_min               =  -1.5925450126330E-01
(PID.TID 0000.0001) %MON forcing_fv_mean              =  -7.1648087163143E-03
(PID.TID 0000.0001) %MON forcing_fv_sd                =   3.9441832348840E-02
(PID.TID 0000.0001) %MON forcing_fv_del2              =   4.3198785440953E-04
(PID.TID 0000.0001) %MON trAdv_CFL_u_max              =   4.1350674821658E-02
(PID.TID 0000.0001) %MON trAdv_CFL_v_max              =   2.6054936507487E-02
(PID.TID 0000.0001) %MON trAdv_CFL_w_max              =   3.9263196214030E-02
(PID.TID 0000.0001) %MON advcfl_uvel_max              =   4.1303469136229E-02
(PID.TID 0000.0001) %MON advcfl_vvel_max              =   2.6283083300328E-02
(PID.TID 0000.0001) %MON advcfl_wvel_max              =   4.0346388509538E-02
(PID.TID 0000.0001) %MON advcfl_W_hf_max              =   4.3313034723475E-02
(PID.TID 0000.0001) %MON pe_b_mean                    =   5.3938595467940E-04
(PID.TID 0000.0001) %MON ke_max                       =   1.2736783835487E-02
(PID.TID 0000.0001) %MON ke_mean                      =   1.2647084217597E-04
(PID.TID 0000.0001) %MON ke_vol                       =   1.3226782436723E+18
(PID.TID 0000.0001) %MON vort_r_min                   =  -3.7305636721688E-07
(PID.TID 0000.0001) %MON vort_r_max                   =   3.8318337066729E-07
(PID.TID 0000.0001) %MON vort_a_mean                  =  -2.5274807097949E-05
(PID.TID 0000.0001) %MON vort_a_sd                    =   7.3604666367020E-05
(PID.TID 0000.0001) %MON vort_p_mean                  =  -3.1845655422106E-05
(PID.TID 0000.0001) %MON vort_p_sd                    =   1.3162495574167E-04
(PID.TID 0000.0001) %MON surfExpan_theta_mean         =  -2.0758397489368E-07
(PID.TID 0000.0001) %MON surfExpan_salt_mean          =   8.7471944182265E-08
(PID.TID 0000.0001) // =======================================================
(PID.TID 0000.0001) // End MONITOR dynamic field statistics
(PID.TID 0000.0001) // =======================================================
 EXTERNAL_FIELDS_LOAD,        86 : iP,iLd,i0,i1=    3    4    3    4 ; Wght=  0.6333333333  0.3666666667
 EXTERNAL_FIELDS_LOAD: (fu0,1),fu,fv= -2.7199E-02 -3.7252E-02 -3.0885E-02 -1.3279E-02
 EXTERNAL_FIELDS_LOAD: SST,SSS,Q,E-P= -1.0352E-01  3.4575E+01  1.7459E+02  8.5998E-06
DEBUG_STATS_RL:          Uvel (THERMODYNAMICS)  min= -1.34090285700536E-01
DEBUG_STATS_RL:          Uvel (THERMODYNAMICS)  max=  1.56582173123743E-01
DEBUG_STATS_RL:          Uvel (THERMODYNAMICS) mean=  6.13296853094307E-03
DEBUG_STATS_RL:          Uvel (THERMODYNAMICS) S.D.=  2.21827156903934E-02
DEBUG_STATS_RL:          Vvel (THERMODYNAMICS)  min= -8.58606665581561E-02
DEBUG_STATS_RL:          Vvel (THERMODYNAMICS)  max=  1.35281795982946E-01
DEBUG_STATS_RL:          Vvel (THERMODYNAMICS) mean=  1.04464858166923E-03
DEBUG_STATS_RL:          Vvel (THERMODYNAMICS) S.D.=  1.32047635820734E-02
DEBUG_STATS_RL:          Wvel (THERMODYNAMICS)  min= -6.22692600112798E-05
DEBUG_STATS_RL:          Wvel (THERMODYNAMICS)  max=  1.70444812569229E-04
DEBUG_STATS_RL:          Wvel (THERMODYNAMICS) mean= -6.07280759122426E-09
DEBUG_STATS_RL:          Wvel (THERMODYNAMICS) S.D.=  8.94038996272813E-06
DEBUG_STATS_RL:         Theta (THERMODYNAMICS)  min= -1.93698371827147E+00
DEBUG_STATS_RL:         Theta (THERMODYNAMICS)  max=  3.11629776743231E+01
DEBUG_STATS_RL:         Theta (THERMODYNAMICS) mean=  3.23082244105854E+00
DEBUG_STATS_RL:         Theta (THERMODYNAMICS) S.D.=  5.88850721276552E+00
DEBUG_STATS_RL:          Salt (THERMODYNAMICS)  min=  9.99999999999997E-03
DEBUG_STATS_RL:          Salt (THERMODYNAMICS)  max=  3.74739062652257E+01
DEBUG_STATS_RL:          Salt (THERMODYNAMICS) mean=  1.88547715129424E+01
DEBUG_STATS_RL:          Salt (THERMODYNAMICS) S.D.=  1.73003252563796E+01
DEBUG_STATS_RL:         GtNm1 (THERMODYNAMICS)  min= -3.59662829546103E-06
DEBUG_STATS_RL:         GtNm1 (THERMODYNAMICS)  max=  1.83421307244149E-06
DEBUG_STATS_RL:         GtNm1 (THERMODYNAMICS) mean= -1.06584563898259E-09
DEBUG_STATS_RL:         GtNm1 (THERMODYNAMICS) S.D.=  1.39214378497455E-07
DEBUG_STATS_RL:         GsNm1 (THERMODYNAMICS)  min= -3.95066170461093E-07
DEBUG_STATS_RL:         GsNm1 (THERMODYNAMICS)  max=  2.39327565425580E-07
DEBUG_STATS_RL:         GsNm1 (THERMODYNAMICS) mean= -1.40577631446315E-10
DEBUG_STATS_RL:         GsNm1 (THERMODYNAMICS) S.D.=  1.36066910203737E-08
DEBUG_STATS_RL:                EtaN (DYNAMICS)  min= -1.96667297912619E+00
DEBUG_STATS_RL:                EtaN (DYNAMICS)  max=  9.57977019033711E-01
DEBUG_STATS_RL:                EtaN (DYNAMICS) mean= -1.95256543458384E-01
DEBUG_STATS_RL:                EtaN (DYNAMICS) S.D.=  7.49581153447127E-01
DEBUG_STATS_RL:                Uvel (DYNAMICS)  min= -1.34090285700536E-01
DEBUG_STATS_RL:                Uvel (DYNAMICS)  max=  1.56582173123743E-01
DEBUG_STATS_RL:                Uvel (DYNAMICS) mean=  6.13296853094307E-03
DEBUG_STATS_RL:                Uvel (DYNAMICS) S.D.=  2.21827156903934E-02
DEBUG_STATS_RL:                Vvel (DYNAMICS)  min= -8.58606665581561E-02
DEBUG_STATS_RL:                Vvel (DYNAMICS)  max=  1.35281795982946E-01
DEBUG_STATS_RL:                Vvel (DYNAMICS) mean=  1.04464858166923E-03
DEBUG_STATS_RL:                Vvel (DYNAMICS) S.D.=  1.32047635820734E-02
DEBUG_STATS_RL:                Wvel (DYNAMICS)  min= -6.22692600112798E-05
DEBUG_STATS_RL:                Wvel (DYNAMICS)  max=  1.70444812569229E-04
DEBUG_STATS_RL:                Wvel (DYNAMICS) mean= -6.07280759122426E-09
DEBUG_STATS_RL:                Wvel (DYNAMICS) S.D.=  8.94038996272813E-06
DEBUG_STATS_RL:               Theta (DYNAMICS)  min= -1.93698371827147E+00
DEBUG_STATS_RL:               Theta (DYNAMICS)  max=  3.11629776743231E+01
DEBUG_STATS_RL:               Theta (DYNAMICS) mean=  3.23082244105854E+00
DEBUG_STATS_RL:               Theta (DYNAMICS) S.D.=  5.88850721276552E+00
DEBUG_STATS_RL:                Salt (DYNAMICS)  min=  9.99999999999997E-03
DEBUG_STATS_RL:                Salt (DYNAMICS)  max=  3.74739062652257E+01
DEBUG_STATS_RL:                Salt (DYNAMICS) mean=  1.88547715129424E+01
DEBUG_STATS_RL:                Salt (DYNAMICS) S.D.=  1.73003252563796E+01
DEBUG_STATS_RL:                  Gu (DYNAMICS)  min= -1.33156151589956E-01
DEBUG_STATS_RL:                  Gu (DYNAMICS)  max=  1.58808960514875E-01
DEBUG_STATS_RL:                  Gu (DYNAMICS) mean=  6.07760849822647E-03
DEBUG_STATS_RL:                  Gu (DYNAMICS) S.D.=  2.25191129501746E-02
DEBUG_STATS_RL:                  Gv (DYNAMICS)  min= -8.73058517993213E-02
DEBUG_STATS_RL:                  Gv (DYNAMICS)  max=  1.35527446294203E-01
DEBUG_STATS_RL:                  Gv (DYNAMICS) mean=  3.60042638275150E-03
DEBUG_STATS_RL:                  Gv (DYNAMICS) S.D.=  1.47833171167142E-02
DEBUG_STATS_RL:               GuNm1 (DYNAMICS)  min= -1.00378322249825E-05
DEBUG_STATS_RL:               GuNm1 (DYNAMICS)  max=  9.24815576683725E-06
DEBUG_STATS_RL:               GuNm1 (DYNAMICS) mean=  1.20793927783273E-08
DEBUG_STATS_RL:               GuNm1 (DYNAMICS) S.D.=  1.22463484985632E-06
DEBUG_STATS_RL:               GvNm1 (DYNAMICS)  min= -9.36571052829625E-06
DEBUG_STATS_RL:               GvNm1 (DYNAMICS)  max=  1.53380877475314E-05
DEBUG_STATS_RL:               GvNm1 (DYNAMICS) mean=  7.37969868307816E-07
DEBUG_STATS_RL:               GvNm1 (DYNAMICS) S.D.=  2.60828144834902E-06
DEBUG_STATS_RL:               GtNm1 (DYNAMICS)  min= -3.59662829546103E-06
DEBUG_STATS_RL:               GtNm1 (DYNAMICS)  max=  1.83421307244149E-06
DEBUG_STATS_RL:               GtNm1 (DYNAMICS) mean= -1.06584563898259E-09
DEBUG_STATS_RL:               GtNm1 (DYNAMICS) S.D.=  1.39214378497455E-07
DEBUG_STATS_RL:               GsNm1 (DYNAMICS)  min= -3.95066170461093E-07
DEBUG_STATS_RL:               GsNm1 (DYNAMICS)  max=  2.39327565425580E-07
DEBUG_STATS_RL:               GsNm1 (DYNAMICS) mean= -1.40577631446315E-10
DEBUG_STATS_RL:               GsNm1 (DYNAMICS) S.D.=  1.36066910203737E-08
DEBUG_STATS_RL:    cg2d_b (SOLVE_FOR_PRESSURE)  min= -2.84260952871108E+04
DEBUG_STATS_RL:    cg2d_b (SOLVE_FOR_PRESSURE)  max=  2.99253803273944E+04
DEBUG_STATS_RL:    cg2d_b (SOLVE_FOR_PRESSURE) mean=  5.47189044028184E+00
DEBUG_STATS_RL:    cg2d_b (SOLVE_FOR_PRESSURE) S.D.=  3.98634257708545E+03
 cg2d: Sum(rhs),rhsMax =   4.23300430292495E-01  1.96557910288598E+00
(PID.TID 0000.0001)  cg2d: iter=     1 ; resid.=  7.15745887535350E-02
(PID.TID 0000.0001)  cg2d: iter=     2 ; resid.=  5.69808447549660E-02
(PID.TID 0000.0001)  cg2d: iter=     3 ; resid.=  5.83140605151370E-02
(PID.TID 0000.0001)  cg2d: iter=     4 ; resid.=  5.71169692503166E-02
(PID.TID 0000.0001)  cg2d: iter=     5 ; resid.=  4.90222292703591E-02
(PID.TID 0000.0001)  cg2d: iter=     6 ; resid.=  4.60869071942630E-02
(PID.TID 0000.0001)  cg2d: iter=     7 ; resid.=  3.91243419453586E-02
(PID.TID 0000.0001)  cg2d: iter=     8 ; resid.=  2.90829604800551E-02
(PID.TID 0000.0001)  cg2d: iter=     9 ; resid.=  2.01456105105040E-02
(PID.TID 0000.0001)  cg2d: iter=    10 ; resid.=  1.52220930137383E-02
(PID.TID 0000.0001)  cg2d: iter=    11 ; resid.=  1.24365993965428E-02
(PID.TID 0000.0001)  cg2d: iter=    12 ; resid.=  1.04226250649796E-02
(PID.TID 0000.0001)  cg2d: iter=    13 ; resid.=  9.19613224430306E-03
(PID.TID 0000.0001)  cg2d: iter=    14 ; resid.=  7.86635092438577E-03
(PID.TID 0000.0001)  cg2d: iter=    15 ; resid.=  6.58125885151381E-03
(PID.TID 0000.0001)  cg2d: iter=    16 ; resid.=  5.58327022516094E-03
(PID.TID 0000.0001)  cg2d: iter=    17 ; resid.=  5.19242073512004E-03
(PID.TID 0000.0001)  cg2d: iter=    18 ; resid.=  4.38798617585579E-03
(PID.TID 0000.0001)  cg2d: iter=    19 ; resid.=  3.34862839116674E-03
(PID.TID 0000.0001)  cg2d: iter=    20 ; resid.=  2.75476148166359E-03
(PID.TID 0000.0001)  cg2d: iter=    21 ; resid.=  2.26403437189804E-03
(PID.TID 0000.0001)  cg2d: iter=    22 ; resid.=  2.04008189944108E-03
(PID.TID 0000.0001)  cg2d: iter=    23 ; resid.=  1.71747493452020E-03
(PID.TID 0000.0001)  cg2d: iter=    24 ; resid.=  1.43371501544693E-03
(PID.TID 0000.0001)  cg2d: iter=    25 ; resid.=  1.16390316706103E-03
(PID.TID 0000.0001)  cg2d: iter=    26 ; resid.=  8.38262916489562E-04
(PID.TID 0000.0001)  cg2d: iter=    27 ; resid.=  6.62365749882692E-04
(PID.TID 0000.0001)  cg2d: iter=    28 ; resid.=  5.31712073485015E-04
(PID.TID 0000.0001)  cg2d: iter=    29 ; resid.=  4.50612117752477E-04
(PID.TID 0000.0001)  cg2d: iter=    30 ; resid.=  3.73297377445247E-04
(PID.TID 0000.0001)  cg2d: iter=    31 ; resid.=  3.04617374750399E-04
(PID.TID 0000.0001)  cg2d: iter=    32 ; resid.=  2.38213710908984E-04
(PID.TID 0000.0001)  cg2d: iter=    33 ; resid.=  1.77347373761898E-04
(PID.TID 0000.0001)  cg2d: iter=    34 ; resid.=  1.51268903114783E-04
(PID.TID 0000.0001)  cg2d: iter=    35 ; resid.=  1.34408632847370E-04
(PID.TID 0000.0001)  cg2d: iter=    36 ; resid.=  1.09545325337810E-04
(PID.TID 0000.0001)  cg2d: iter=    37 ; resid.=  9.65429586885061E-05
(PID.TID 0000.0001)  cg2d: iter=    38 ; resid.=  8.08007219575574E-05
(PID.TID 0000.0001)  cg2d: iter=    39 ; resid.=  6.96511085798147E-05
(PID.TID 0000.0001)  cg2d: iter=    40 ; resid.=  5.75280207357977E-05
(PID.TID 0000.0001)  cg2d: iter=    41 ; resid.=  4.43688817883577E-05
(PID.TID 0000.0001)  cg2d: iter=    42 ; resid.=  3.47050598464396E-05
(PID.TID 0000.0001)  cg2d: iter=    43 ; resid.=  2.85913429537495E-05
(PID.TID 0000.0001)  cg2d: iter=    44 ; resid.=  2.40107435940920E-05
(PID.TID 0000.0001)  cg2d: iter=    45 ; resid.=  2.10009453674813E-05
(PID.TID 0000.0001)  cg2d: iter=    46 ; resid.=  1.68029214333882E-05
(PID.TID 0000.0001)  cg2d: iter=    47 ; resid.=  1.27520990779242E-05
(PID.TID 0000.0001)  cg2d: iter=    48 ; resid.=  1.05879070136204E-05
(PID.TID 0000.0001)  cg2d: iter=    49 ; resid.=  9.38877055622978E-06
(PID.TID 0000.0001)  cg2d: iter=    50 ; resid.=  7.84457121030849E-06
(PID.TID 0000.0001)  cg2d: iter=    51 ; resid.=  6.60343425459256E-06
(PID.TID 0000.0001)  cg2d: iter=    52 ; resid.=  5.79722197722340E-06
(PID.TID 0000.0001)  cg2d: iter=    53 ; resid.=  5.37948594663647E-06
(PID.TID 0000.0001)  cg2d: iter=    54 ; resid.=  4.37970651067651E-06
(PID.TID 0000.0001)  cg2d: iter=    55 ; resid.=  3.65684945906948E-06
(PID.TID 0000.0001)  cg2d: iter=    56 ; resid.=  3.15580460326759E-06
(PID.TID 0000.0001)  cg2d: iter=    57 ; resid.=  2.70934562883059E-06
(PID.TID 0000.0001)  cg2d: iter=    58 ; resid.=  2.18541366013552E-06
(PID.TID 0000.0001)  cg2d: iter=    59 ; resid.=  1.60944082026067E-06
(PID.TID 0000.0001)  cg2d: iter=    60 ; resid.=  1.43517018297560E-06
(PID.TID 0000.0001)  cg2d: iter=    61 ; resid.=  1.24329446307531E-06
(PID.TID 0000.0001)  cg2d: iter=    62 ; resid.=  1.09030921731212E-06
(PID.TID 0000.0001)  cg2d: iter=    63 ; resid.=  8.92698045421460E-07
(PID.TID 0000.0001)  cg2d: iter=    64 ; resid.=  7.00495004508526E-07
(PID.TID 0000.0001)  cg2d: iter=    65 ; resid.=  5.83940798109535E-07
(PID.TID 0000.0001)  cg2d: iter=    66 ; resid.=  4.78949037809181E-07
(PID.TID 0000.0001)  cg2d: iter=    67 ; resid.=  3.85715702146068E-07
(PID.TID 0000.0001)  cg2d: iter=    68 ; resid.=  3.36858032220206E-07
(PID.TID 0000.0001)  cg2d: iter=    69 ; resid.=  2.87306533997196E-07
(PID.TID 0000.0001)  cg2d: iter=    70 ; resid.=  2.42111760943595E-07
(PID.TID 0000.0001)  cg2d: iter=    71 ; resid.=  2.01058528941348E-07
(PID.TID 0000.0001)  cg2d: iter=    72 ; resid.=  1.78555885654604E-07
(PID.TID 0000.0001)  cg2d: iter=    73 ; resid.=  1.52053105060435E-07
(PID.TID 0000.0001)  cg2d: iter=    74 ; resid.=  1.31763665895092E-07
(PID.TID 0000.0001)  cg2d: iter=    75 ; resid.=  1.16839730778259E-07
(PID.TID 0000.0001)  cg2d: iter=    76 ; resid.=  9.96731412132192E-08
(PID.TID 0000.0001)  cg2d: iter=    77 ; resid.=  7.83857033025411E-08
(PID.TID 0000.0001)  cg2d: iter=    78 ; resid.=  6.72937496916858E-08
(PID.TID 0000.0001)  cg2d: iter=    79 ; resid.=  5.35025303194951E-08
(PID.TID 0000.0001)  cg2d: iter=    80 ; resid.=  4.17329946486274E-08
(PID.TID 0000.0001)  cg2d: iter=    81 ; resid.=  3.07495484874315E-08
(PID.TID 0000.0001)  cg2d: iter=    82 ; resid.=  2.11459550228186E-08
(PID.TID 0000.0001)  cg2d: iter=    83 ; resid.=  1.66115977153072E-08
(PID.TID 0000.0001)  cg2d: iter=    84 ; resid.=  1.32439148642174E-08
(PID.TID 0000.0001)  cg2d: iter=    85 ; resid.=  9.76081018322371E-09
(PID.TID 0000.0001)  cg2d: iter=    86 ; resid.=  7.30530788470477E-09
(PID.TID 0000.0001)  cg2d: iter=    87 ; resid.=  5.99381574187150E-09
(PID.TID 0000.0001)  cg2d: iter=    88 ; resid.=  5.01488091799070E-09
(PID.TID 0000.0001)  cg2d: iter=    89 ; resid.=  4.13421390730726E-09
(PID.TID 0000.0001)  cg2d: iter=    90 ; resid.=  3.43925465773171E-09
(PID.TID 0000.0001)  cg2d: iter=    91 ; resid.=  2.70377592764477E-09
(PID.TID 0000.0001)  cg2d: iter=    92 ; resid.=  2.24608907000510E-09
(PID.TID 0000.0001)  cg2d: iter=    93 ; resid.=  1.67569238817990E-09
(PID.TID 0000.0001)  cg2d: iter=    94 ; resid.=  1.28737975595226E-09
(PID.TID 0000.0001)  cg2d: iter=    95 ; resid.=  1.06394021705592E-09
(PID.TID 0000.0001)  cg2d: iter=    96 ; resid.=  8.10381874023992E-10
(PID.TID 0000.0001)  cg2d: iter=    97 ; resid.=  6.21507318491520E-10
(PID.TID 0000.0001)  cg2d: iter=    98 ; resid.=  5.16384278877633E-10
(PID.TID 0000.0001)  cg2d: iter=    99 ; resid.=  4.72471633606955E-10
(PID.TID 0000.0001)  cg2d: iter=   100 ; resid.=  4.27767366190103E-10
(PID.TID 0000.0001)  cg2d: iter=   101 ; resid.=  3.64500152499726E-10
(PID.TID 0000.0001)  cg2d: iter=   102 ; resid.=  2.88328127517851E-10
(PID.TID 0000.0001)  cg2d: iter=   103 ; resid.=  2.19178738886812E-10
(PID.TID 0000.0001)  cg2d: iter=   104 ; resid.=  1.78203547164432E-10
(PID.TID 0000.0001)  cg2d: iter=   105 ; resid.=  1.43432252910224E-10
(PID.TID 0000.0001)  cg2d: iter=   106 ; resid.=  1.02891867829471E-10
(PID.TID 0000.0001)  cg2d: iter=   107 ; resid.=  6.91562457940701E-11
(PID.TID 0000.0001)  cg2d: iter=   108 ; resid.=  5.00542963652139E-11
(PID.TID 0000.0001)  cg2d: iter=   109 ; resid.=  3.65570798636599E-11
(PID.TID 0000.0001)  cg2d: iter=   110 ; resid.=  2.78983653825046E-11
(PID.TID 0000.0001)  cg2d: iter=   111 ; resid.=  2.23296775308035E-11
(PID.TID 0000.0001)  cg2d: iter=   112 ; resid.=  1.73558358080158E-11
(PID.TID 0000.0001)  cg2d: iter=   113 ; resid.=  1.16804353500094E-11
(PID.TID 0000.0001)  cg2d: iter=   114 ; resid.=  8.92165211966853E-12
(PID.TID 0000.0001)  cg2d: iter=   115 ; resid.=  6.96481879906023E-12
(PID.TID 0000.0001)  cg2d: iter=   116 ; resid.=  5.45098935551240E-12
(PID.TID 0000.0001)  cg2d: iter=   117 ; resid.=  4.27106423044164E-12
(PID.TID 0000.0001)  cg2d: iter=   118 ; resid.=  3.32242512748698E-12
(PID.TID 0000.0001)  cg2d: iter=   119 ; resid.=  2.49260364791781E-12
(PID.TID 0000.0001)  cg2d: iter=   120 ; resid.=  2.02492211212365E-12
(PID.TID 0000.0001)  cg2d: iter=   121 ; resid.=  1.51398223025383E-12
(PID.TID 0000.0001)  cg2d: iter=   122 ; resid.=  1.11818749345307E-12
(PID.TID 0000.0001)  cg2d: iter=   123 ; resid.=  8.63212892268908E-13
(PID.TID 0000.0001)  cg2d: iter=   124 ; resid.=  6.76771875845442E-13
(PID.TID 0000.0001)  cg2d: iter=   125 ; resid.=  5.09308971441723E-13
(PID.TID 0000.0001)  cg2d: iter=   126 ; resid.=  3.83840981966357E-13
(PID.TID 0000.0001)  cg2d: iter=   127 ; resid.=  2.57936666279076E-13
(PID.TID 0000.0001)  cg2d: iter=   128 ; resid.=  1.88518665610736E-13
(PID.TID 0000.0001)  cg2d: iter=   129 ; resid.=  1.20586507006253E-13
(PID.TID 0000.0001)  cg2d: iter=   130 ; resid.=  7.98643608462941E-14
DEBUG_STATS_RL:    cg2d_x (SOLVE_FOR_PRESSURE)  min= -1.92041488166413E+01
DEBUG_STATS_RL:    cg2d_x (SOLVE_FOR_PRESSURE)  max=  9.23805744213302E+00
DEBUG_STATS_RL:    cg2d_x (SOLVE_FOR_PRESSURE) mean= -1.90542255384624E+00
DEBUG_STATS_RL:    cg2d_x (SOLVE_FOR_PRESSURE) S.D.=  7.29325456843792E+00
(PID.TID 0000.0001)      cg2d_init_res =   1.98676869817601E-01
(PID.TID 0000.0001)      cg2d_iters(min,last) =      -1     130
(PID.TID 0000.0001)      cg2d_last_res =   7.98643608462941E-14
(PID.TID 0000.0001) // =======================================================
(PID.TID 0000.0001) // Begin MONITOR dynamic field statistics
(PID.TID 0000.0001) // =======================================================
(PID.TID 0000.0001) %MON time_tsnumber                =                    87
(PID.TID 0000.0001) %MON time_secondsf                =   7.5168000000000E+06
(PID.TID 0000.0001) %MON dynstat_eta_max              =   9.4169800633364E-01
(PID.TID 0000.0001) %MON dynstat_eta_min              =  -1.9576094614314E+00
(PID.TID 0000.0001) %MON dynstat_eta_mean             =  -5.7092391824194E-03
(PID.TID 0000.0001) %MON dynstat_eta_sd               =   6.4242644007422E-01
(PID.TID 0000.0001) %MON dynstat_eta_del2             =   2.5259746653345E-03
(PID.TID 0000.0001) %MON dynstat_uvel_max             =   1.5421343945635E-01
(PID.TID 0000.0001) %MON dynstat_uvel_min             =  -1.3477721734833E-01
(PID.TID 0000.0001) %MON dynstat_uvel_mean            =   2.4866996112697E-03
(PID.TID 0000.0001) %MON dynstat_uvel_sd              =   1.4331046346599E-02
(PID.TID 0000.0001) %MON dynstat_uvel_del2            =   9.2643295062467E-05
(PID.TID 0000.0001) %MON dynstat_vvel_max             =   1.3592011549198E-01
(PID.TID 0000.0001) %MON dynstat_vvel_min             =  -8.5928251892099E-02
(PID.TID 0000.0001) %MON dynstat_vvel_mean            =   3.8177907061332E-05
(PID.TID 0000.0001) %MON dynstat_vvel_sd              =   8.1192634599789E-03
(PID.TID 0000.0001) %MON dynstat_vvel_del2            =   7.5173658421333E-05
(PID.TID 0000.0001) %MON dynstat_wvel_max             =   1.6360344548082E-04
(PID.TID 0000.0001) %MON dynstat_wvel_min             =  -6.1305961675889E-05
(PID.TID 0000.0001) %MON dynstat_wvel_mean            =  -1.4261031802676E-22
(PID.TID 0000.0001) %MON dynstat_wvel_sd              =   9.9785744130963E-06
(PID.TID 0000.0001) %MON dynstat_wvel_del2            =   9.8423246747298E-08
(PID.TID 0000.0001) %MON dynstat_theta_max            =   3.1162977674323E+01
(PID.TID 0000.0001) %MON dynstat_theta_min            =  -1.9369837182715E+00
(PID.TID 0000.0001) %MON dynstat_theta_mean           =   3.6342447663020E+00
(PID.TID 0000.0001) %MON dynstat_theta_sd             =   4.4285004056366E+00
(PID.TID 0000.0001) %MON dynstat_theta_del2           =   4.8335110236397E-03
(PID.TID 0000.0001) %MON dynstat_salt_max             =   3.7473906265226E+01
(PID.TID 0000.0001) %MON dynstat_salt_min             =   2.9941460925261E+01
(PID.TID 0000.0001) %MON dynstat_salt_mean            =   3.4728005792959E+01
(PID.TID 0000.0001) %MON dynstat_salt_sd              =   2.9663580719105E-01
(PID.TID 0000.0001) %MON dynstat_salt_del2            =   9.9713207485546E-04
(PID.TID 0000.0001) %MON dynstat_sst_max              =   3.1162977674323E+01
(PID.TID 0000.0001) %MON dynstat_sst_min              =  -1.9369837182715E+00
(PID.TID 0000.0001) %MON dynstat_sst_mean             =   1.9064075137333E+01
(PID.TID 0000.0001) %MON dynstat_sst_sd               =   9.2320968495058E+00
(PID.TID 0000.0001) %MON dynstat_sst_del2             =   2.9206750836006E-02
(PID.TID 0000.0001) %MON dynstat_sss_max              =   3.7473906265226E+01
(PID.TID 0000.0001) %MON dynstat_sss_min              =   2.9941460925261E+01
(PID.TID 0000.0001) %MON dynstat_sss_mean             =   3.4847505986028E+01
(PID.TID 0000.0001) %MON dynstat_sss_sd               =   9.8954454290878E-01
(PID.TID 0000.0001) %MON dynstat_sss_del2             =   8.2800043349972E-03
(PID.TID 0000.0001) %MON forcing_qnet_max             =   2.2275010782878E+02
(PID.TID 0000.0001) %MON forcing_qnet_min             =  -1.5914763132731E+02
(PID.TID 0000.0001) %MON forcing_qnet_mean            =  -2.8976652714786E+00
(PID.TID 0000.0001) %MON forcing_qnet_sd              =   3.9684988242510E+01
(PID.TID 0000.0001) %MON forcing_qnet_del2            =   7.9160338493799E-01
(PID.TID 0000.0001) %MON forcing_qsw_max              =   0.0000000000000E+00
(PID.TID 0000.0001) %MON forcing_qsw_min              =   0.0000000000000E+00
(PID.TID 0000.0001) %MON forcing_qsw_mean             =   0.0000000000000E+00
(PID.TID 0000.0001) %MON forcing_qsw_sd               =   0.0000000000000E+00
(PID.TID 0000.0001) %MON forcing_qsw_del2             =   0.0000000000000E+00
(PID.TID 0000.0001) %MON forcing_empmr_max            =   6.8050940645511E-05
(PID.TID 0000.0001) %MON forcing_empmr_min            =  -8.3427724462126E-05
(PID.TID 0000.0001) %MON forcing_empmr_mean           =   3.0381204057547E-07
(PID.TID 0000.0001) %MON forcing_empmr_sd             =   2.5679722852412E-05
(PID.TID 0000.0001) %MON forcing_empmr_del2           =   3.6300151295043E-07
(PID.TID 0000.0001) %MON forcing_fu_max               =   3.4985787868500E-01
(PID.TID 0000.0001) %MON forcing_fu_min               =  -3.9882021248341E-01
(PID.TID 0000.0001) %MON forcing_fu_mean              =   1.9057616234127E-02
(PID.TID 0000.0001) %MON forcing_fu_sd                =   1.0030231704399E-01
(PID.TID 0000.0001) %MON forcing_fu_del2              =   7.8085114246442E-04
(PID.TID 0000.0001) %MON forcing_fv_max               =   1.8224433263143E-01
(PID.TID 0000.0001) %MON forcing_fv_min               =  -1.5584678848584E-01
(PID.TID 0000.0001) %MON forcing_fv_mean              =  -7.1283320439412E-03
(PID.TID 0000.0001) %MON forcing_fv_sd                =   3.9251431709163E-02
(PID.TID 0000.0001) %MON forcing_fv_del2              =   4.2751975732847E-04
(PID.TID 0000.0001) %MON trAdv_CFL_u_max              =   4.1311858166218E-02
(PID.TID 0000.0001) %MON trAdv_CFL_v_max              =   2.6240369232748E-02
(PID.TID 0000.0001) %MON trAdv_CFL_w_max              =   3.7760081553798E-02
(PID.TID 0000.0001) %MON advcfl_uvel_max              =   4.2316367161958E-02
(PID.TID 0000.0001) %MON advcfl_vvel_max              =   2.6407098543519E-02
(PID.TID 0000.0001) %MON advcfl_wvel_max              =   3.8610805376770E-02
(PID.TID 0000.0001) %MON advcfl_W_hf_max              =   4.1449835183886E-02
(PID.TID 0000.0001) %MON pe_b_mean                    =   5.2815611476654E-04
(PID.TID 0000.0001) %MON ke_max                       =   1.2828897228254E-02
(PID.TID 0000.0001) %MON ke_mean                      =   1.2571220164333E-04
(PID.TID 0000.0001) %MON ke_vol                       =   1.3226782436723E+18
(PID.TID 0000.0001) %MON vort_r_min                   =  -3.6888843731071E-07
(PID.TID 0000.0001) %MON vort_r_max                   =   3.8082624533749E-07
(PID.TID 0000.0001) %MON vort_a_mean                  =  -2.5274807120022E-05
(PID.TID 0000.0001) %MON vort_a_sd                    =   7.3604664503028E-05
(PID.TID 0000.0001) %MON vort_p_mean                  =  -3.1845655449918E-05
(PID.TID 0000.0001) %MON vort_p_sd                    =   1.3162491785181E-04
(PID.TID 0000.0001) %MON surfExpan_theta_mean         =  -2.1181460178256E-07
(PID.TID 0000.0001) %MON surfExpan_salt_mean          =   8.8077179935874E-08
(PID.TID 0000.0001) // =======================================================
(PID.TID 0000.0001) // End MONITOR dynamic field statistics
(PID.TID 0000.0001) // =======================================================
 EXTERNAL_FIELDS_LOAD,        87 : iP,iLd,i0,i1=    3    4    3    4 ; Wght=  0.6000000000  0.4000000000
 EXTERNAL_FIELDS_LOAD: (fu0,1),fu,fv= -2.7199E-02 -3.7252E-02 -3.1220E-02 -1.4433E-02
 EXTERNAL_FIELDS_LOAD: SST,SSS,Q,E-P= -9.6208E-02  3.4575E+01  1.7088E+02  8.5561E-06
DEBUG_STATS_RL:          Uvel (THERMODYNAMICS)  min= -1.34777217348335E-01
DEBUG_STATS_RL:          Uvel (THERMODYNAMICS)  max=  1.54213439456346E-01
DEBUG_STATS_RL:          Uvel (THERMODYNAMICS) mean=  6.09248213933429E-03
DEBUG_STATS_RL:          Uvel (THERMODYNAMICS) S.D.=  2.21441600723742E-02
DEBUG_STATS_RL:          Vvel (THERMODYNAMICS)  min= -8.59282518920995E-02
DEBUG_STATS_RL:          Vvel (THERMODYNAMICS)  max=  1.35920115491978E-01
DEBUG_STATS_RL:          Vvel (THERMODYNAMICS) mean=  1.02417351242571E-03
DEBUG_STATS_RL:          Vvel (THERMODYNAMICS) S.D.=  1.31549096722287E-02
DEBUG_STATS_RL:          Wvel (THERMODYNAMICS)  min= -6.13059616758890E-05
DEBUG_STATS_RL:          Wvel (THERMODYNAMICS)  max=  1.63603445480825E-04
DEBUG_STATS_RL:          Wvel (THERMODYNAMICS) mean= -1.18213796155173E-08
DEBUG_STATS_RL:          Wvel (THERMODYNAMICS) S.D.=  8.84824468416828E-06
DEBUG_STATS_RL:         Theta (THERMODYNAMICS)  min= -1.93584044151310E+00
DEBUG_STATS_RL:         Theta (THERMODYNAMICS)  max=  3.11801991130518E+01
DEBUG_STATS_RL:         Theta (THERMODYNAMICS) mean=  3.23071312128634E+00
DEBUG_STATS_RL:         Theta (THERMODYNAMICS) S.D.=  5.88867388982719E+00
DEBUG_STATS_RL:          Salt (THERMODYNAMICS)  min=  9.99999999999997E-03
DEBUG_STATS_RL:          Salt (THERMODYNAMICS)  max=  3.74744993442122E+01
DEBUG_STATS_RL:          Salt (THERMODYNAMICS) mean=  1.88547661533525E+01
DEBUG_STATS_RL:          Salt (THERMODYNAMICS) S.D.=  1.73003211560877E+01
DEBUG_STATS_RL:         GtNm1 (THERMODYNAMICS)  min= -3.49344617433895E-06
DEBUG_STATS_RL:         GtNm1 (THERMODYNAMICS)  max=  1.77726456890166E-06
DEBUG_STATS_RL:         GtNm1 (THERMODYNAMICS) mean= -1.22599087393885E-09
DEBUG_STATS_RL:         GtNm1 (THERMODYNAMICS) S.D.=  1.37817773597918E-07
DEBUG_STATS_RL:         GsNm1 (THERMODYNAMICS)  min= -3.51768618591441E-07
DEBUG_STATS_RL:         GsNm1 (THERMODYNAMICS)  max=  2.46163859440911E-07
DEBUG_STATS_RL:         GsNm1 (THERMODYNAMICS) mean= -1.66422775242446E-10
DEBUG_STATS_RL:         GsNm1 (THERMODYNAMICS) S.D.=  1.34522464162426E-08
DEBUG_STATS_RL:                EtaN (DYNAMICS)  min= -1.95760946143139E+00
DEBUG_STATS_RL:                EtaN (DYNAMICS)  max=  9.41698006333636E-01
DEBUG_STATS_RL:                EtaN (DYNAMICS) mean= -1.94232676233053E-01
DEBUG_STATS_RL:                EtaN (DYNAMICS) S.D.=  7.43451026344341E-01
DEBUG_STATS_RL:                Uvel (DYNAMICS)  min= -1.34777217348335E-01
DEBUG_STATS_RL:                Uvel (DYNAMICS)  max=  1.54213439456346E-01
DEBUG_STATS_RL:                Uvel (DYNAMICS) mean=  6.09248213933429E-03
DEBUG_STATS_RL:                Uvel (DYNAMICS) S.D.=  2.21441600723742E-02
DEBUG_STATS_RL:                Vvel (DYNAMICS)  min= -8.59282518920995E-02
DEBUG_STATS_RL:                Vvel (DYNAMICS)  max=  1.35920115491978E-01
DEBUG_STATS_RL:                Vvel (DYNAMICS) mean=  1.02417351242571E-03
DEBUG_STATS_RL:                Vvel (DYNAMICS) S.D.=  1.31549096722287E-02
DEBUG_STATS_RL:                Wvel (DYNAMICS)  min= -6.13059616758890E-05
DEBUG_STATS_RL:                Wvel (DYNAMICS)  max=  1.63603445480825E-04
DEBUG_STATS_RL:                Wvel (DYNAMICS) mean= -1.18213796155173E-08
DEBUG_STATS_RL:                Wvel (DYNAMICS) S.D.=  8.84824468416828E-06
DEBUG_STATS_RL:               Theta (DYNAMICS)  min= -1.93584044151310E+00
DEBUG_STATS_RL:               Theta (DYNAMICS)  max=  3.11801991130518E+01
DEBUG_STATS_RL:               Theta (DYNAMICS) mean=  3.23071312128634E+00
DEBUG_STATS_RL:               Theta (DYNAMICS) S.D.=  5.88867388982719E+00
DEBUG_STATS_RL:                Salt (DYNAMICS)  min=  9.99999999999997E-03
DEBUG_STATS_RL:                Salt (DYNAMICS)  max=  3.74744993442122E+01
DEBUG_STATS_RL:                Salt (DYNAMICS) mean=  1.88547661533525E+01
DEBUG_STATS_RL:                Salt (DYNAMICS) S.D.=  1.73003211560877E+01
DEBUG_STATS_RL:                  Gu (DYNAMICS)  min= -1.33828322261593E-01
DEBUG_STATS_RL:                  Gu (DYNAMICS)  max=  1.55678719233073E-01
DEBUG_STATS_RL:                  Gu (DYNAMICS) mean=  6.03691627761237E-03
DEBUG_STATS_RL:                  Gu (DYNAMICS) S.D.=  2.24894146026112E-02
DEBUG_STATS_RL:                  Gv (DYNAMICS)  min= -8.45848488280701E-02
DEBUG_STATS_RL:                  Gv (DYNAMICS)  max=  1.36124726575098E-01
DEBUG_STATS_RL:                  Gv (DYNAMICS) mean=  3.57712257199128E-03
DEBUG_STATS_RL:                  Gv (DYNAMICS) S.D.=  1.47329094082292E-02
DEBUG_STATS_RL:               GuNm1 (DYNAMICS)  min= -9.97024692003440E-06
DEBUG_STATS_RL:               GuNm1 (DYNAMICS)  max=  9.40851500700006E-06
DEBUG_STATS_RL:               GuNm1 (DYNAMICS) mean=  1.26077784473258E-08
DEBUG_STATS_RL:               GuNm1 (DYNAMICS) S.D.=  1.22508622489183E-06
DEBUG_STATS_RL:               GvNm1 (DYNAMICS)  min= -9.34093057663701E-06
DEBUG_STATS_RL:               GvNm1 (DYNAMICS)  max=  1.52983725990342E-05
DEBUG_STATS_RL:               GvNm1 (DYNAMICS) mean=  7.38202377289021E-07
DEBUG_STATS_RL:               GvNm1 (DYNAMICS) S.D.=  2.60737618606027E-06
DEBUG_STATS_RL:               GtNm1 (DYNAMICS)  min= -3.49344617433895E-06
DEBUG_STATS_RL:               GtNm1 (DYNAMICS)  max=  1.77726456890166E-06
DEBUG_STATS_RL:               GtNm1 (DYNAMICS) mean= -1.22599087393885E-09
DEBUG_STATS_RL:               GtNm1 (DYNAMICS) S.D.=  1.37817773597918E-07
DEBUG_STATS_RL:               GsNm1 (DYNAMICS)  min= -3.51768618591441E-07
DEBUG_STATS_RL:               GsNm1 (DYNAMICS)  max=  2.46163859440911E-07
DEBUG_STATS_RL:               GsNm1 (DYNAMICS) mean= -1.66422775242446E-10
DEBUG_STATS_RL:               GsNm1 (DYNAMICS) S.D.=  1.34522464162426E-08
DEBUG_STATS_RL:    cg2d_b (SOLVE_FOR_PRESSURE)  min= -2.86154650648206E+04
DEBUG_STATS_RL:    cg2d_b (SOLVE_FOR_PRESSURE)  max=  3.01558495671601E+04
DEBUG_STATS_RL:    cg2d_b (SOLVE_FOR_PRESSURE) mean=  5.49440198038465E+00
DEBUG_STATS_RL:    cg2d_b (SOLVE_FOR_PRESSURE) S.D.=  3.99009864193655E+03
 cg2d: Sum(rhs),rhsMax =   4.21793475135290E-01  1.98071693961807E+00
(PID.TID 0000.0001)  cg2d: iter=     1 ; resid.=  6.98146926849434E-02
(PID.TID 0000.0001)  cg2d: iter=     2 ; resid.=  5.55229339408824E-02
(PID.TID 0000.0001)  cg2d: iter=     3 ; resid.=  5.69889028754185E-02
(PID.TID 0000.0001)  cg2d: iter=     4 ; resid.=  5.54677095551240E-02
(PID.TID 0000.0001)  cg2d: iter=     5 ; resid.=  4.77380754832085E-02
(PID.TID 0000.0001)  cg2d: iter=     6 ; resid.=  4.58921307174768E-02
(PID.TID 0000.0001)  cg2d: iter=     7 ; resid.=  3.81280478533231E-02
(PID.TID 0000.0001)  cg2d: iter=     8 ; resid.=  2.79932513806153E-02
(PID.TID 0000.0001)  cg2d: iter=     9 ; resid.=  1.94569606138702E-02
(PID.TID 0000.0001)  cg2d: iter=    10 ; resid.=  1.45685926961695E-02
(PID.TID 0000.0001)  cg2d: iter=    11 ; resid.=  1.19182085738506E-02
(PID.TID 0000.0001)  cg2d: iter=    12 ; resid.=  1.00125474243689E-02
(PID.TID 0000.0001)  cg2d: iter=    13 ; resid.=  8.86098882224698E-03
(PID.TID 0000.0001)  cg2d: iter=    14 ; resid.=  7.66326989163817E-03
(PID.TID 0000.0001)  cg2d: iter=    15 ; resid.=  6.40931184184256E-03
(PID.TID 0000.0001)  cg2d: iter=    16 ; resid.=  5.47792804117197E-03
(PID.TID 0000.0001)  cg2d: iter=    17 ; resid.=  5.10877415858797E-03
(PID.TID 0000.0001)  cg2d: iter=    18 ; resid.=  4.26974048066568E-03
(PID.TID 0000.0001)  cg2d: iter=    19 ; resid.=  3.26991168937869E-03
(PID.TID 0000.0001)  cg2d: iter=    20 ; resid.=  2.66194496085262E-03
(PID.TID 0000.0001)  cg2d: iter=    21 ; resid.=  2.16009032274139E-03
(PID.TID 0000.0001)  cg2d: iter=    22 ; resid.=  1.94082838242972E-03
(PID.TID 0000.0001)  cg2d: iter=    23 ; resid.=  1.63257753460312E-03
(PID.TID 0000.0001)  cg2d: iter=    24 ; resid.=  1.39533947018324E-03
(PID.TID 0000.0001)  cg2d: iter=    25 ; resid.=  1.14036132435627E-03
(PID.TID 0000.0001)  cg2d: iter=    26 ; resid.=  8.22016696940392E-04
(PID.TID 0000.0001)  cg2d: iter=    27 ; resid.=  6.46690017600239E-04
(PID.TID 0000.0001)  cg2d: iter=    28 ; resid.=  5.13258207477068E-04
(PID.TID 0000.0001)  cg2d: iter=    29 ; resid.=  4.30458092982761E-04
(PID.TID 0000.0001)  cg2d: iter=    30 ; resid.=  3.58654718581762E-04
(PID.TID 0000.0001)  cg2d: iter=    31 ; resid.=  2.98972271428011E-04
(PID.TID 0000.0001)  cg2d: iter=    32 ; resid.=  2.36267029374997E-04
(PID.TID 0000.0001)  cg2d: iter=    33 ; resid.=  1.76235734240427E-04
(PID.TID 0000.0001)  cg2d: iter=    34 ; resid.=  1.51994067597494E-04
(PID.TID 0000.0001)  cg2d: iter=    35 ; resid.=  1.34596745930866E-04
(PID.TID 0000.0001)  cg2d: iter=    36 ; resid.=  1.08623820734941E-04
(PID.TID 0000.0001)  cg2d: iter=    37 ; resid.=  9.56395578532630E-05
(PID.TID 0000.0001)  cg2d: iter=    38 ; resid.=  8.02716051415151E-05
(PID.TID 0000.0001)  cg2d: iter=    39 ; resid.=  6.94747328563032E-05
(PID.TID 0000.0001)  cg2d: iter=    40 ; resid.=  5.75912072295266E-05
(PID.TID 0000.0001)  cg2d: iter=    41 ; resid.=  4.53464328279311E-05
(PID.TID 0000.0001)  cg2d: iter=    42 ; resid.=  3.60971772560259E-05
(PID.TID 0000.0001)  cg2d: iter=    43 ; resid.=  3.00032769463058E-05
(PID.TID 0000.0001)  cg2d: iter=    44 ; resid.=  2.49154568106175E-05
(PID.TID 0000.0001)  cg2d: iter=    45 ; resid.=  2.17001100819068E-05
(PID.TID 0000.0001)  cg2d: iter=    46 ; resid.=  1.73743605332856E-05
(PID.TID 0000.0001)  cg2d: iter=    47 ; resid.=  1.33630954957835E-05
(PID.TID 0000.0001)  cg2d: iter=    48 ; resid.=  1.14645678237639E-05
(PID.TID 0000.0001)  cg2d: iter=    49 ; resid.=  1.05372288726794E-05
(PID.TID 0000.0001)  cg2d: iter=    50 ; resid.=  8.94284631606683E-06
(PID.TID 0000.0001)  cg2d: iter=    51 ; resid.=  7.61888509107129E-06
(PID.TID 0000.0001)  cg2d: iter=    52 ; resid.=  6.68276707163105E-06
(PID.TID 0000.0001)  cg2d: iter=    53 ; resid.=  6.00312446401223E-06
(PID.TID 0000.0001)  cg2d: iter=    54 ; resid.=  4.71125350731989E-06
(PID.TID 0000.0001)  cg2d: iter=    55 ; resid.=  3.83318478368549E-06
(PID.TID 0000.0001)  cg2d: iter=    56 ; resid.=  3.36241058880246E-06
(PID.TID 0000.0001)  cg2d: iter=    57 ; resid.=  2.97017935389166E-06
(PID.TID 0000.0001)  cg2d: iter=    58 ; resid.=  2.41755631334365E-06
(PID.TID 0000.0001)  cg2d: iter=    59 ; resid.=  1.82284188686456E-06
(PID.TID 0000.0001)  cg2d: iter=    60 ; resid.=  1.63416482971410E-06
(PID.TID 0000.0001)  cg2d: iter=    61 ; resid.=  1.38467516266375E-06
(PID.TID 0000.0001)  cg2d: iter=    62 ; resid.=  1.17723691129491E-06
(PID.TID 0000.0001)  cg2d: iter=    63 ; resid.=  9.55141148691244E-07
(PID.TID 0000.0001)  cg2d: iter=    64 ; resid.=  7.45130375879609E-07
(PID.TID 0000.0001)  cg2d: iter=    65 ; resid.=  6.13517260194055E-07
(PID.TID 0000.0001)  cg2d: iter=    66 ; resid.=  5.06456286953987E-07
(PID.TID 0000.0001)  cg2d: iter=    67 ; resid.=  4.15092782478433E-07
(PID.TID 0000.0001)  cg2d: iter=    68 ; resid.=  3.62230473208386E-07
(PID.TID 0000.0001)  cg2d: iter=    69 ; resid.=  3.01350863516924E-07
(PID.TID 0000.0001)  cg2d: iter=    70 ; resid.=  2.48622199426462E-07
(PID.TID 0000.0001)  cg2d: iter=    71 ; resid.=  2.08250824630338E-07
(PID.TID 0000.0001)  cg2d: iter=    72 ; resid.=  1.83937983834051E-07
(PID.TID 0000.0001)  cg2d: iter=    73 ; resid.=  1.56392817671831E-07
(PID.TID 0000.0001)  cg2d: iter=    74 ; resid.=  1.37240066383851E-07
(PID.TID 0000.0001)  cg2d: iter=    75 ; resid.=  1.20063648384132E-07
(PID.TID 0000.0001)  cg2d: iter=    76 ; resid.=  9.92364242597820E-08
(PID.TID 0000.0001)  cg2d: iter=    77 ; resid.=  7.73425658356350E-08
(PID.TID 0000.0001)  cg2d: iter=    78 ; resid.=  6.63963470301273E-08
(PID.TID 0000.0001)  cg2d: iter=    79 ; resid.=  5.25603790298191E-08
(PID.TID 0000.0001)  cg2d: iter=    80 ; resid.=  4.11352807037021E-08
(PID.TID 0000.0001)  cg2d: iter=    81 ; resid.=  3.09496850247265E-08
(PID.TID 0000.0001)  cg2d: iter=    82 ; resid.=  2.13826013142590E-08
(PID.TID 0000.0001)  cg2d: iter=    83 ; resid.=  1.64881628554509E-08
(PID.TID 0000.0001)  cg2d: iter=    84 ; resid.=  1.28579594459655E-08
(PID.TID 0000.0001)  cg2d: iter=    85 ; resid.=  9.43281032290555E-09
(PID.TID 0000.0001)  cg2d: iter=    86 ; resid.=  7.05471579178185E-09
(PID.TID 0000.0001)  cg2d: iter=    87 ; resid.=  5.77312043955598E-09
(PID.TID 0000.0001)  cg2d: iter=    88 ; resid.=  4.83491541921713E-09
(PID.TID 0000.0001)  cg2d: iter=    89 ; resid.=  4.09249412725839E-09
(PID.TID 0000.0001)  cg2d: iter=    90 ; resid.=  3.44122975680098E-09
(PID.TID 0000.0001)  cg2d: iter=    91 ; resid.=  2.68810775621218E-09
(PID.TID 0000.0001)  cg2d: iter=    92 ; resid.=  2.17576767658685E-09
(PID.TID 0000.0001)  cg2d: iter=    93 ; resid.=  1.59482636052708E-09
(PID.TID 0000.0001)  cg2d: iter=    94 ; resid.=  1.22293078247178E-09
(PID.TID 0000.0001)  cg2d: iter=    95 ; resid.=  1.01235157695133E-09
(PID.TID 0000.0001)  cg2d: iter=    96 ; resid.=  7.73678279708571E-10
(PID.TID 0000.0001)  cg2d: iter=    97 ; resid.=  5.89540464388283E-10
(PID.TID 0000.0001)  cg2d: iter=    98 ; resid.=  4.92871806266317E-10
(PID.TID 0000.0001)  cg2d: iter=    99 ; resid.=  4.58137123867816E-10
(PID.TID 0000.0001)  cg2d: iter=   100 ; resid.=  4.22352001193715E-10
(PID.TID 0000.0001)  cg2d: iter=   101 ; resid.=  3.59719203617661E-10
(PID.TID 0000.0001)  cg2d: iter=   102 ; resid.=  2.80161218032725E-10
(PID.TID 0000.0001)  cg2d: iter=   103 ; resid.=  2.10797828540536E-10
(PID.TID 0000.0001)  cg2d: iter=   104 ; resid.=  1.67776334051575E-10
(PID.TID 0000.0001)  cg2d: iter=   105 ; resid.=  1.33526941409266E-10
(PID.TID 0000.0001)  cg2d: iter=   106 ; resid.=  9.47727809782389E-11
(PID.TID 0000.0001)  cg2d: iter=   107 ; resid.=  6.46778791147190E-11
(PID.TID 0000.0001)  cg2d: iter=   108 ; resid.=  4.61182723748594E-11
(PID.TID 0000.0001)  cg2d: iter=   109 ; resid.=  3.30256988840764E-11
(PID.TID 0000.0001)  cg2d: iter=   110 ; resid.=  2.46849188231657E-11
(PID.TID 0000.0001)  cg2d: iter=   111 ; resid.=  1.94824215911620E-11
(PID.TID 0000.0001)  cg2d: iter=   112 ; resid.=  1.53054852087215E-11
(PID.TID 0000.0001)  cg2d: iter=   113 ; resid.=  1.04946342490542E-11
(PID.TID 0000.0001)  cg2d: iter=   114 ; resid.=  8.24545186377376E-12
(PID.TID 0000.0001)  cg2d: iter=   115 ; resid.=  6.74893278175579E-12
(PID.TID 0000.0001)  cg2d: iter=   116 ; resid.=  5.44771246171257E-12
(PID.TID 0000.0001)  cg2d: iter=   117 ; resid.=  4.36872925723924E-12
(PID.TID 0000.0001)  cg2d: iter=   118 ; resid.=  3.42365333863319E-12
(PID.TID 0000.0001)  cg2d: iter=   119 ; resid.=  2.46018290152792E-12
(PID.TID 0000.0001)  cg2d: iter=   120 ; resid.=  1.90367620333345E-12
(PID.TID 0000.0001)  cg2d: iter=   121 ; resid.=  1.38680238947428E-12
(PID.TID 0000.0001)  cg2d: iter=   122 ; resid.=  9.71746804477512E-13
(PID.TID 0000.0001)  cg2d: iter=   123 ; resid.=  7.24683738927399E-13
(PID.TID 0000.0001)  cg2d: iter=   124 ; resid.=  5.53405340106964E-13
(PID.TID 0000.0001)  cg2d: iter=   125 ; resid.=  4.08760459374649E-13
(PID.TID 0000.0001)  cg2d: iter=   126 ; resid.=  3.12187469463115E-13
(PID.TID 0000.0001)  cg2d: iter=   127 ; resid.=  2.13947790535187E-13
(PID.TID 0000.0001)  cg2d: iter=   128 ; resid.=  1.60508388421632E-13
(PID.TID 0000.0001)  cg2d: iter=   129 ; resid.=  1.06391463978490E-13
(PID.TID 0000.0001)  cg2d: iter=   130 ; resid.=  7.24692156997446E-14
DEBUG_STATS_RL:    cg2d_x (SOLVE_FOR_PRESSURE)  min= -1.90948334517993E+01
DEBUG_STATS_RL:    cg2d_x (SOLVE_FOR_PRESSURE)  max=  9.08043935309141E+00
DEBUG_STATS_RL:    cg2d_x (SOLVE_FOR_PRESSURE) mean= -1.89528773131986E+00
DEBUG_STATS_RL:    cg2d_x (SOLVE_FOR_PRESSURE) S.D.=  7.23768685196296E+00
(PID.TID 0000.0001)      cg2d_init_res =   1.96482005287966E-01
(PID.TID 0000.0001)      cg2d_iters(min,last) =      -1     130
(PID.TID 0000.0001)      cg2d_last_res =   7.24692156997446E-14
(PID.TID 0000.0001) // =======================================================
(PID.TID 0000.0001) // Begin MONITOR dynamic field statistics
(PID.TID 0000.0001) // =======================================================
(PID.TID 0000.0001) %MON time_tsnumber                =                    88
(PID.TID 0000.0001) %MON time_secondsf                =   7.6032000000000E+06
(PID.TID 0000.0001) %MON dynstat_eta_max              =   9.2563092284309E-01
(PID.TID 0000.0001) %MON dynstat_eta_min              =  -1.9464662030378E+00
(PID.TID 0000.0001) %MON dynstat_eta_mean             =  -5.7327271831772E-03
(PID.TID 0000.0001) %MON dynstat_eta_sd               =   6.3616167654998E-01
(PID.TID 0000.0001) %MON dynstat_eta_del2             =   2.5305377214967E-03
(PID.TID 0000.0001) %MON dynstat_uvel_max             =   1.5246680462145E-01
(PID.TID 0000.0001) %MON dynstat_uvel_min             =  -1.3533057939880E-01
(PID.TID 0000.0001) %MON dynstat_uvel_mean            =   2.4728839403576E-03
(PID.TID 0000.0001) %MON dynstat_uvel_sd              =   1.4291523664539E-02
(PID.TID 0000.0001) %MON dynstat_uvel_del2            =   9.2800252919825E-05
(PID.TID 0000.0001) %MON dynstat_vvel_max             =   1.3623497661315E-01
(PID.TID 0000.0001) %MON dynstat_vvel_min             =  -8.5736628335970E-02
(PID.TID 0000.0001) %MON dynstat_vvel_mean            =   4.2875473153683E-05
(PID.TID 0000.0001) %MON dynstat_vvel_sd              =   8.0917261929210E-03
(PID.TID 0000.0001) %MON dynstat_vvel_del2            =   7.5305220659928E-05
(PID.TID 0000.0001) %MON dynstat_wvel_max             =   1.5690229195957E-04
(PID.TID 0000.0001) %MON dynstat_wvel_min             =  -6.0052835781061E-05
(PID.TID 0000.0001) %MON dynstat_wvel_mean            =   5.3947642621461E-23
(PID.TID 0000.0001) %MON dynstat_wvel_sd              =   9.8868964643367E-06
(PID.TID 0000.0001) %MON dynstat_wvel_del2            =   9.7337341042380E-08
(PID.TID 0000.0001) %MON dynstat_theta_max            =   3.1180199113052E+01
(PID.TID 0000.0001) %MON dynstat_theta_min            =  -1.9358404415131E+00
(PID.TID 0000.0001) %MON dynstat_theta_mean           =   3.6342626260144E+00
(PID.TID 0000.0001) %MON dynstat_theta_sd             =   4.4286078666745E+00
(PID.TID 0000.0001) %MON dynstat_theta_del2           =   4.8308409738703E-03
(PID.TID 0000.0001) %MON dynstat_salt_max             =   3.7474499344212E+01
(PID.TID 0000.0001) %MON dynstat_salt_min             =   2.9944839350420E+01
(PID.TID 0000.0001) %MON dynstat_salt_mean            =   3.4728004281841E+01
(PID.TID 0000.0001) %MON dynstat_salt_sd              =   2.9663973413918E-01
(PID.TID 0000.0001) %MON dynstat_salt_del2            =   9.9754015200543E-04
(PID.TID 0000.0001) %MON dynstat_sst_max              =   3.1180199113052E+01
(PID.TID 0000.0001) %MON dynstat_sst_min              =  -1.9358404415131E+00
(PID.TID 0000.0001) %MON dynstat_sst_mean             =   1.9062287287012E+01
(PID.TID 0000.0001) %MON dynstat_sst_sd               =   9.2395860998555E+00
(PID.TID 0000.0001) %MON dynstat_sst_del2             =   2.9240217453251E-02
(PID.TID 0000.0001) %MON dynstat_sss_max              =   3.7474499344212E+01
(PID.TID 0000.0001) %MON dynstat_sss_min              =   2.9944839350420E+01
(PID.TID 0000.0001) %MON dynstat_sss_mean             =   3.4847382784217E+01
(PID.TID 0000.0001) %MON dynstat_sss_sd               =   9.8996626792059E-01
(PID.TID 0000.0001) %MON dynstat_sss_del2             =   8.2905843001378E-03
(PID.TID 0000.0001) %MON forcing_qnet_max             =   2.1804487304688E+02
(PID.TID 0000.0001) %MON forcing_qnet_min             =  -1.5871963500977E+02
(PID.TID 0000.0001) %MON forcing_qnet_mean            =  -2.5006288425090E+00
(PID.TID 0000.0001) %MON forcing_qnet_sd              =   3.9492057446070E+01
(PID.TID 0000.0001) %MON forcing_qnet_del2            =   7.8895928517454E-01
(PID.TID 0000.0001) %MON forcing_qsw_max              =   0.0000000000000E+00
(PID.TID 0000.0001) %MON forcing_qsw_min              =   0.0000000000000E+00
(PID.TID 0000.0001) %MON forcing_qsw_mean             =   0.0000000000000E+00
(PID.TID 0000.0001) %MON forcing_qsw_sd               =   0.0000000000000E+00
(PID.TID 0000.0001) %MON forcing_qsw_del2             =   0.0000000000000E+00
(PID.TID 0000.0001) %MON forcing_empmr_max            =   6.7954769633616E-05
(PID.TID 0000.0001) %MON forcing_empmr_min            =  -8.3442570542047E-05
(PID.TID 0000.0001) %MON forcing_empmr_mean           =   2.8136667574790E-07
(PID.TID 0000.0001) %MON forcing_empmr_sd             =   2.5645681839636E-05
(PID.TID 0000.0001) %MON forcing_empmr_del2           =   3.6313018392051E-07
(PID.TID 0000.0001) %MON forcing_fu_max               =   3.4936582446098E-01
(PID.TID 0000.0001) %MON forcing_fu_min               =  -3.9975328445435E-01
(PID.TID 0000.0001) %MON forcing_fu_mean              =   1.8930424137194E-02
(PID.TID 0000.0001) %MON forcing_fu_sd                =   1.0027877528737E-01
(PID.TID 0000.0001) %MON forcing_fu_del2              =   7.7872447127255E-04
(PID.TID 0000.0001) %MON forcing_fv_max               =   1.8214833140373E-01
(PID.TID 0000.0001) %MON forcing_fv_min               =  -1.5243907570839E-01
(PID.TID 0000.0001) %MON forcing_fv_mean              =  -7.0918553715682E-03
(PID.TID 0000.0001) %MON forcing_fv_sd                =   3.9087205962164E-02
(PID.TID 0000.0001) %MON forcing_fv_del2              =   4.2370613844542E-04
(PID.TID 0000.0001) %MON trAdv_CFL_u_max              =   4.2324961918781E-02
(PID.TID 0000.0001) %MON trAdv_CFL_v_max              =   2.6364182932025E-02
(PID.TID 0000.0001) %MON trAdv_CFL_w_max              =   3.6135753750054E-02
(PID.TID 0000.0001) %MON advcfl_uvel_max              =   4.3176854539599E-02
(PID.TID 0000.0001) %MON advcfl_vvel_max              =   2.6468271009598E-02
(PID.TID 0000.0001) %MON advcfl_wvel_max              =   3.6827704009869E-02
(PID.TID 0000.0001) %MON advcfl_W_hf_max              =   3.9535623422359E-02
(PID.TID 0000.0001) %MON pe_b_mean                    =   5.1790663140469E-04
(PID.TID 0000.0001) %MON ke_max                       =   1.2814376892647E-02
(PID.TID 0000.0001) %MON ke_mean                      =   1.2496689175411E-04
(PID.TID 0000.0001) %MON ke_vol                       =   1.3226782436723E+18
(PID.TID 0000.0001) %MON vort_r_min                   =  -3.6447911835111E-07
(PID.TID 0000.0001) %MON vort_r_max                   =   3.8213518055853E-07
(PID.TID 0000.0001) %MON vort_a_mean                  =  -2.5274807137390E-05
(PID.TID 0000.0001) %MON vort_a_sd                    =   7.3604662945129E-05
(PID.TID 0000.0001) %MON vort_p_mean                  =  -3.1845655471801E-05
(PID.TID 0000.0001) %MON vort_p_sd                    =   1.3162488471477E-04
(PID.TID 0000.0001) %MON surfExpan_theta_mean         =  -2.0839666654003E-07
(PID.TID 0000.0001) %MON surfExpan_salt_mean          =   8.6776397906072E-08
(PID.TID 0000.0001) // =======================================================
(PID.TID 0000.0001) // End MONITOR dynamic field statistics
(PID.TID 0000.0001) // =======================================================
 EXTERNAL_FIELDS_LOAD,        88 : iP,iLd,i0,i1=    3    4    3    4 ; Wght=  0.5666666667  0.4333333333
 EXTERNAL_FIELDS_LOAD: (fu0,1),fu,fv= -2.7199E-02 -3.7252E-02 -3.1555E-02 -1.5588E-02
 EXTERNAL_FIELDS_LOAD: SST,SSS,Q,E-P= -8.8900E-02  3.4575E+01  1.6717E+02  8.5124E-06
DEBUG_STATS_RL:          Uvel (THERMODYNAMICS)  min= -1.35330579398804E-01
DEBUG_STATS_RL:          Uvel (THERMODYNAMICS)  max=  1.52466804621448E-01
DEBUG_STATS_RL:          Uvel (THERMODYNAMICS) mean=  6.05334662628627E-03
DEBUG_STATS_RL:          Uvel (THERMODYNAMICS) S.D.=  2.21163091264171E-02
DEBUG_STATS_RL:          Vvel (THERMODYNAMICS)  min= -8.57366283359695E-02
DEBUG_STATS_RL:          Vvel (THERMODYNAMICS)  max=  1.36234976613154E-01
DEBUG_STATS_RL:          Vvel (THERMODYNAMICS) mean=  1.00088276886078E-03
DEBUG_STATS_RL:          Vvel (THERMODYNAMICS) S.D.=  1.31072564056020E-02
DEBUG_STATS_RL:          Wvel (THERMODYNAMICS)  min= -6.00528357810606E-05
DEBUG_STATS_RL:          Wvel (THERMODYNAMICS)  max=  1.56902291959574E-04
DEBUG_STATS_RL:          Wvel (THERMODYNAMICS) mean= -1.74491130803479E-08
DEBUG_STATS_RL:          Wvel (THERMODYNAMICS) S.D.=  8.75601477811154E-06
DEBUG_STATS_RL:         Theta (THERMODYNAMICS)  min= -1.93468488653100E+00
DEBUG_STATS_RL:         Theta (THERMODYNAMICS)  max=  3.11966251081509E+01
DEBUG_STATS_RL:         Theta (THERMODYNAMICS) mean=  3.23059544464034E+00
DEBUG_STATS_RL:         Theta (THERMODYNAMICS) S.D.=  5.88881142358594E+00
DEBUG_STATS_RL:          Salt (THERMODYNAMICS)  min=  9.99999999999997E-03
DEBUG_STATS_RL:          Salt (THERMODYNAMICS)  max=  3.74751143639083E+01
DEBUG_STATS_RL:          Salt (THERMODYNAMICS) mean=  1.88547598811991E+01
DEBUG_STATS_RL:          Salt (THERMODYNAMICS) S.D.=  1.73003162232627E+01
DEBUG_STATS_RL:         GtNm1 (THERMODYNAMICS)  min= -3.41259779526426E-06
DEBUG_STATS_RL:         GtNm1 (THERMODYNAMICS)  max=  1.84856776068126E-06
DEBUG_STATS_RL:         GtNm1 (THERMODYNAMICS) mean= -1.38999190808953E-09
DEBUG_STATS_RL:         GtNm1 (THERMODYNAMICS) S.D.=  1.36975970018514E-07
DEBUG_STATS_RL:         GsNm1 (THERMODYNAMICS)  min= -5.57335149633713E-07
DEBUG_STATS_RL:         GsNm1 (THERMODYNAMICS)  max=  3.77442986673095E-07
DEBUG_STATS_RL:         GsNm1 (THERMODYNAMICS) mean= -1.89726944930205E-10
DEBUG_STATS_RL:         GsNm1 (THERMODYNAMICS) S.D.=  1.38980846505988E-08
DEBUG_STATS_RL:                EtaN (DYNAMICS)  min= -1.94646620303775E+00
DEBUG_STATS_RL:                EtaN (DYNAMICS)  max=  9.25630922843088E-01
DEBUG_STATS_RL:                EtaN (DYNAMICS) mean= -1.93199564864409E-01
DEBUG_STATS_RL:                EtaN (DYNAMICS) S.D.=  7.37786631188886E-01
DEBUG_STATS_RL:                Uvel (DYNAMICS)  min= -1.35330579398804E-01
DEBUG_STATS_RL:                Uvel (DYNAMICS)  max=  1.52466804621448E-01
DEBUG_STATS_RL:                Uvel (DYNAMICS) mean=  6.05334662628627E-03
DEBUG_STATS_RL:                Uvel (DYNAMICS) S.D.=  2.21163091264171E-02
DEBUG_STATS_RL:                Vvel (DYNAMICS)  min= -8.57366283359695E-02
DEBUG_STATS_RL:                Vvel (DYNAMICS)  max=  1.36234976613154E-01
DEBUG_STATS_RL:                Vvel (DYNAMICS) mean=  1.00088276886078E-03
DEBUG_STATS_RL:                Vvel (DYNAMICS) S.D.=  1.31072564056020E-02
DEBUG_STATS_RL:                Wvel (DYNAMICS)  min= -6.00528357810606E-05
DEBUG_STATS_RL:                Wvel (DYNAMICS)  max=  1.56902291959574E-04
DEBUG_STATS_RL:                Wvel (DYNAMICS) mean= -1.74491130803479E-08
DEBUG_STATS_RL:                Wvel (DYNAMICS) S.D.=  8.75601477811154E-06
DEBUG_STATS_RL:               Theta (DYNAMICS)  min= -1.93468488653100E+00
DEBUG_STATS_RL:               Theta (DYNAMICS)  max=  3.11966251081509E+01
DEBUG_STATS_RL:               Theta (DYNAMICS) mean=  3.23059544464034E+00
DEBUG_STATS_RL:               Theta (DYNAMICS) S.D.=  5.88881142358594E+00
DEBUG_STATS_RL:                Salt (DYNAMICS)  min=  9.99999999999997E-03
DEBUG_STATS_RL:                Salt (DYNAMICS)  max=  3.74751143639083E+01
DEBUG_STATS_RL:                Salt (DYNAMICS) mean=  1.88547598811991E+01
DEBUG_STATS_RL:                Salt (DYNAMICS) S.D.=  1.73003162232627E+01
DEBUG_STATS_RL:                  Gu (DYNAMICS)  min= -1.34369062125736E-01
DEBUG_STATS_RL:                  Gu (DYNAMICS)  max=  1.51969506901875E-01
DEBUG_STATS_RL:                  Gu (DYNAMICS) mean=  5.99822283465076E-03
DEBUG_STATS_RL:                  Gu (DYNAMICS) S.D.=  2.24722773748276E-02
DEBUG_STATS_RL:                  Gv (DYNAMICS)  min= -8.39902498055409E-02
DEBUG_STATS_RL:                  Gv (DYNAMICS)  max=  1.36398919012260E-01
DEBUG_STATS_RL:                  Gv (DYNAMICS) mean=  3.55452764307137E-03
DEBUG_STATS_RL:                  Gv (DYNAMICS) S.D.=  1.46832314152299E-02
DEBUG_STATS_RL:               GuNm1 (DYNAMICS)  min= -9.90083870843894E-06
DEBUG_STATS_RL:               GuNm1 (DYNAMICS)  max=  9.56094878205370E-06
DEBUG_STATS_RL:               GuNm1 (DYNAMICS) mean=  1.31407357135434E-08
DEBUG_STATS_RL:               GuNm1 (DYNAMICS) S.D.=  1.22553352394981E-06
DEBUG_STATS_RL:               GvNm1 (DYNAMICS)  min= -9.32106331329281E-06
DEBUG_STATS_RL:               GvNm1 (DYNAMICS)  max=  1.52577259097733E-05
DEBUG_STATS_RL:               GvNm1 (DYNAMICS) mean=  7.38485623045057E-07
DEBUG_STATS_RL:               GvNm1 (DYNAMICS) S.D.=  2.60654206040835E-06
DEBUG_STATS_RL:               GtNm1 (DYNAMICS)  min= -3.41259779526426E-06
DEBUG_STATS_RL:               GtNm1 (DYNAMICS)  max=  1.84856776068126E-06
DEBUG_STATS_RL:               GtNm1 (DYNAMICS) mean= -1.38999190808953E-09
DEBUG_STATS_RL:               GtNm1 (DYNAMICS) S.D.=  1.36975970018514E-07
DEBUG_STATS_RL:               GsNm1 (DYNAMICS)  min= -5.57335149633713E-07
DEBUG_STATS_RL:               GsNm1 (DYNAMICS)  max=  3.77442986673095E-07
DEBUG_STATS_RL:               GsNm1 (DYNAMICS) mean= -1.89726944930205E-10
DEBUG_STATS_RL:               GsNm1 (DYNAMICS) S.D.=  1.38980846505988E-08
DEBUG_STATS_RL:    cg2d_b (SOLVE_FOR_PRESSURE)  min= -2.87402138521316E+04
DEBUG_STATS_RL:    cg2d_b (SOLVE_FOR_PRESSURE)  max=  3.03586181041496E+04
DEBUG_STATS_RL:    cg2d_b (SOLVE_FOR_PRESSURE) mean=  5.51511771531796E+00
DEBUG_STATS_RL:    cg2d_b (SOLVE_FOR_PRESSURE) S.D.=  3.99392914319572E+03
 cg2d: Sum(rhs),rhsMax =   4.20555951102949E-01  1.99403532002523E+00
(PID.TID 0000.0001)  cg2d: iter=     1 ; resid.=  6.77608786286726E-02
(PID.TID 0000.0001)  cg2d: iter=     2 ; resid.=  5.32848394157175E-02
(PID.TID 0000.0001)  cg2d: iter=     3 ; resid.=  5.45413983402565E-02
(PID.TID 0000.0001)  cg2d: iter=     4 ; resid.=  5.28838497697263E-02
(PID.TID 0000.0001)  cg2d: iter=     5 ; resid.=  4.54712065341904E-02
(PID.TID 0000.0001)  cg2d: iter=     6 ; resid.=  4.45678696972299E-02
(PID.TID 0000.0001)  cg2d: iter=     7 ; resid.=  3.64500994630200E-02
(PID.TID 0000.0001)  cg2d: iter=     8 ; resid.=  2.66971909838871E-02
(PID.TID 0000.0001)  cg2d: iter=     9 ; resid.=  1.87667597578894E-02
(PID.TID 0000.0001)  cg2d: iter=    10 ; resid.=  1.39694923408430E-02
(PID.TID 0000.0001)  cg2d: iter=    11 ; resid.=  1.14248587931768E-02
(PID.TID 0000.0001)  cg2d: iter=    12 ; resid.=  9.60823550545042E-03
(PID.TID 0000.0001)  cg2d: iter=    13 ; resid.=  8.44219439065434E-03
(PID.TID 0000.0001)  cg2d: iter=    14 ; resid.=  7.32777724510404E-03
(PID.TID 0000.0001)  cg2d: iter=    15 ; resid.=  6.12204340353469E-03
(PID.TID 0000.0001)  cg2d: iter=    16 ; resid.=  5.26106476395602E-03
(PID.TID 0000.0001)  cg2d: iter=    17 ; resid.=  4.93634814446789E-03
(PID.TID 0000.0001)  cg2d: iter=    18 ; resid.=  4.11286856398138E-03
(PID.TID 0000.0001)  cg2d: iter=    19 ; resid.=  3.18532706795958E-03
(PID.TID 0000.0001)  cg2d: iter=    20 ; resid.=  2.57179165470284E-03
(PID.TID 0000.0001)  cg2d: iter=    21 ; resid.=  2.06097242616064E-03
(PID.TID 0000.0001)  cg2d: iter=    22 ; resid.=  1.84198864673032E-03
(PID.TID 0000.0001)  cg2d: iter=    23 ; resid.=  1.53867393400392E-03
(PID.TID 0000.0001)  cg2d: iter=    24 ; resid.=  1.33415764942836E-03
(PID.TID 0000.0001)  cg2d: iter=    25 ; resid.=  1.09607844277249E-03
(PID.TID 0000.0001)  cg2d: iter=    26 ; resid.=  7.97232937862638E-04
(PID.TID 0000.0001)  cg2d: iter=    27 ; resid.=  6.29762078574634E-04
(PID.TID 0000.0001)  cg2d: iter=    28 ; resid.=  4.99618994857767E-04
(PID.TID 0000.0001)  cg2d: iter=    29 ; resid.=  4.16221237733519E-04
(PID.TID 0000.0001)  cg2d: iter=    30 ; resid.=  3.47529994684598E-04
(PID.TID 0000.0001)  cg2d: iter=    31 ; resid.=  2.94075613745737E-04
(PID.TID 0000.0001)  cg2d: iter=    32 ; resid.=  2.32828388059379E-04
(PID.TID 0000.0001)  cg2d: iter=    33 ; resid.=  1.73792647892091E-04
(PID.TID 0000.0001)  cg2d: iter=    34 ; resid.=  1.51759931297432E-04
(PID.TID 0000.0001)  cg2d: iter=    35 ; resid.=  1.33550612705698E-04
(PID.TID 0000.0001)  cg2d: iter=    36 ; resid.=  1.07283212072790E-04
(PID.TID 0000.0001)  cg2d: iter=    37 ; resid.=  9.49228758026784E-05
(PID.TID 0000.0001)  cg2d: iter=    38 ; resid.=  7.99235767410963E-05
(PID.TID 0000.0001)  cg2d: iter=    39 ; resid.=  6.92452014069940E-05
(PID.TID 0000.0001)  cg2d: iter=    40 ; resid.=  5.75993857275066E-05
(PID.TID 0000.0001)  cg2d: iter=    41 ; resid.=  4.63437737279031E-05
(PID.TID 0000.0001)  cg2d: iter=    42 ; resid.=  3.76364286849303E-05
(PID.TID 0000.0001)  cg2d: iter=    43 ; resid.=  3.17040680342045E-05
(PID.TID 0000.0001)  cg2d: iter=    44 ; resid.=  2.61592514897899E-05
(PID.TID 0000.0001)  cg2d: iter=    45 ; resid.=  2.25736588966787E-05
(PID.TID 0000.0001)  cg2d: iter=    46 ; resid.=  1.79491743694219E-05
(PID.TID 0000.0001)  cg2d: iter=    47 ; resid.=  1.39193664784678E-05
(PID.TID 0000.0001)  cg2d: iter=    48 ; resid.=  1.22926733645456E-05
(PID.TID 0000.0001)  cg2d: iter=    49 ; resid.=  1.15606896929560E-05
(PID.TID 0000.0001)  cg2d: iter=    50 ; resid.=  9.86596084077379E-06
(PID.TID 0000.0001)  cg2d: iter=    51 ; resid.=  8.46008425458606E-06
(PID.TID 0000.0001)  cg2d: iter=    52 ; resid.=  7.34421093530631E-06
(PID.TID 0000.0001)  cg2d: iter=    53 ; resid.=  6.36182825545145E-06
(PID.TID 0000.0001)  cg2d: iter=    54 ; resid.=  4.84526969867863E-06
(PID.TID 0000.0001)  cg2d: iter=    55 ; resid.=  3.86111682828759E-06
(PID.TID 0000.0001)  cg2d: iter=    56 ; resid.=  3.43132989129929E-06
(PID.TID 0000.0001)  cg2d: iter=    57 ; resid.=  3.10242994633547E-06
(PID.TID 0000.0001)  cg2d: iter=    58 ; resid.=  2.54241920123216E-06
(PID.TID 0000.0001)  cg2d: iter=    59 ; resid.=  1.95287225374938E-06
(PID.TID 0000.0001)  cg2d: iter=    60 ; resid.=  1.74520972686277E-06
(PID.TID 0000.0001)  cg2d: iter=    61 ; resid.=  1.44421133038460E-06
(PID.TID 0000.0001)  cg2d: iter=    62 ; resid.=  1.19597052152754E-06
(PID.TID 0000.0001)  cg2d: iter=    63 ; resid.=  9.66278471640227E-07
(PID.TID 0000.0001)  cg2d: iter=    64 ; resid.=  7.48901548977662E-07
(PID.TID 0000.0001)  cg2d: iter=    65 ; resid.=  6.07521224008865E-07
(PID.TID 0000.0001)  cg2d: iter=    66 ; resid.=  5.02229470744383E-07
(PID.TID 0000.0001)  cg2d: iter=    67 ; resid.=  4.17964020321061E-07
(PID.TID 0000.0001)  cg2d: iter=    68 ; resid.=  3.64967746846331E-07
(PID.TID 0000.0001)  cg2d: iter=    69 ; resid.=  2.98147033494380E-07
(PID.TID 0000.0001)  cg2d: iter=    70 ; resid.=  2.42063027798287E-07
(PID.TID 0000.0001)  cg2d: iter=    71 ; resid.=  2.04824343358995E-07
(PID.TID 0000.0001)  cg2d: iter=    72 ; resid.=  1.79883486121456E-07
(PID.TID 0000.0001)  cg2d: iter=    73 ; resid.=  1.53336672655441E-07
(PID.TID 0000.0001)  cg2d: iter=    74 ; resid.=  1.36482252739645E-07
(PID.TID 0000.0001)  cg2d: iter=    75 ; resid.=  1.17457866612825E-07
(PID.TID 0000.0001)  cg2d: iter=    76 ; resid.=  9.44968931722303E-08
(PID.TID 0000.0001)  cg2d: iter=    77 ; resid.=  7.38362413941465E-08
(PID.TID 0000.0001)  cg2d: iter=    78 ; resid.=  6.37470305034560E-08
(PID.TID 0000.0001)  cg2d: iter=    79 ; resid.=  5.04557570313249E-08
(PID.TID 0000.0001)  cg2d: iter=    80 ; resid.=  3.97089173529470E-08
(PID.TID 0000.0001)  cg2d: iter=    81 ; resid.=  3.05184605584396E-08
(PID.TID 0000.0001)  cg2d: iter=    82 ; resid.=  2.11432454256718E-08
(PID.TID 0000.0001)  cg2d: iter=    83 ; resid.=  1.59352482121448E-08
(PID.TID 0000.0001)  cg2d: iter=    84 ; resid.=  1.21937104835903E-08
(PID.TID 0000.0001)  cg2d: iter=    85 ; resid.=  9.00043946293122E-09
(PID.TID 0000.0001)  cg2d: iter=    86 ; resid.=  6.77588303724186E-09
(PID.TID 0000.0001)  cg2d: iter=    87 ; resid.=  5.54967592689436E-09
(PID.TID 0000.0001)  cg2d: iter=    88 ; resid.=  4.63970968239479E-09
(PID.TID 0000.0001)  cg2d: iter=    89 ; resid.=  3.98784121068720E-09
(PID.TID 0000.0001)  cg2d: iter=    90 ; resid.=  3.34420278864469E-09
(PID.TID 0000.0001)  cg2d: iter=    91 ; resid.=  2.58196227423232E-09
(PID.TID 0000.0001)  cg2d: iter=    92 ; resid.=  2.04274678628450E-09
(PID.TID 0000.0001)  cg2d: iter=    93 ; resid.=  1.47236547750584E-09
(PID.TID 0000.0001)  cg2d: iter=    94 ; resid.=  1.13163381062630E-09
(PID.TID 0000.0001)  cg2d: iter=    95 ; resid.=  9.50860952220366E-10
(PID.TID 0000.0001)  cg2d: iter=    96 ; resid.=  7.41198778237831E-10
(PID.TID 0000.0001)  cg2d: iter=    97 ; resid.=  5.62307084328669E-10
(PID.TID 0000.0001)  cg2d: iter=    98 ; resid.=  4.67535227867790E-10
(PID.TID 0000.0001)  cg2d: iter=    99 ; resid.=  4.36333118459356E-10
(PID.TID 0000.0001)  cg2d: iter=   100 ; resid.=  4.06488655591469E-10
(PID.TID 0000.0001)  cg2d: iter=   101 ; resid.=  3.43884078842800E-10
(PID.TID 0000.0001)  cg2d: iter=   102 ; resid.=  2.64508904201929E-10
(PID.TID 0000.0001)  cg2d: iter=   103 ; resid.=  1.98718997606755E-10
(PID.TID 0000.0001)  cg2d: iter=   104 ; resid.=  1.55161099384858E-10
(PID.TID 0000.0001)  cg2d: iter=   105 ; resid.=  1.23546817663772E-10
(PID.TID 0000.0001)  cg2d: iter=   106 ; resid.=  8.82688825944530E-11
(PID.TID 0000.0001)  cg2d: iter=   107 ; resid.=  6.25865156906191E-11
(PID.TID 0000.0001)  cg2d: iter=   108 ; resid.=  4.51849753236965E-11
(PID.TID 0000.0001)  cg2d: iter=   109 ; resid.=  3.26517677980259E-11
(PID.TID 0000.0001)  cg2d: iter=   110 ; resid.=  2.45054271961734E-11
(PID.TID 0000.0001)  cg2d: iter=   111 ; resid.=  1.92458061078537E-11
(PID.TID 0000.0001)  cg2d: iter=   112 ; resid.=  1.49569008795448E-11
(PID.TID 0000.0001)  cg2d: iter=   113 ; resid.=  1.02683955921748E-11
(PID.TID 0000.0001)  cg2d: iter=   114 ; resid.=  8.13920132258957E-12
(PID.TID 0000.0001)  cg2d: iter=   115 ; resid.=  6.76337266995829E-12
(PID.TID 0000.0001)  cg2d: iter=   116 ; resid.=  5.43869384484412E-12
(PID.TID 0000.0001)  cg2d: iter=   117 ; resid.=  4.39511047404240E-12
(PID.TID 0000.0001)  cg2d: iter=   118 ; resid.=  3.45578725876841E-12
(PID.TID 0000.0001)  cg2d: iter=   119 ; resid.=  2.40370946457342E-12
(PID.TID 0000.0001)  cg2d: iter=   120 ; resid.=  1.81803347844763E-12
(PID.TID 0000.0001)  cg2d: iter=   121 ; resid.=  1.33799184338638E-12
(PID.TID 0000.0001)  cg2d: iter=   122 ; resid.=  9.17508861824533E-13
(PID.TID 0000.0001)  cg2d: iter=   123 ; resid.=  6.69608561266311E-13
(PID.TID 0000.0001)  cg2d: iter=   124 ; resid.=  5.00401003940947E-13
(PID.TID 0000.0001)  cg2d: iter=   125 ; resid.=  3.59160016055138E-13
(PID.TID 0000.0001)  cg2d: iter=   126 ; resid.=  2.68217670594849E-13
(PID.TID 0000.0001)  cg2d: iter=   127 ; resid.=  1.83585029731401E-13
(PID.TID 0000.0001)  cg2d: iter=   128 ; resid.=  1.39628855483798E-13
(PID.TID 0000.0001)  cg2d: iter=   129 ; resid.=  9.63059402143944E-14
DEBUG_STATS_RL:    cg2d_x (SOLVE_FOR_PRESSURE)  min= -1.89678814087329E+01
DEBUG_STATS_RL:    cg2d_x (SOLVE_FOR_PRESSURE)  max=  8.92845133697888E+00
DEBUG_STATS_RL:    cg2d_x (SOLVE_FOR_PRESSURE) mean= -1.88533436410234E+00
DEBUG_STATS_RL:    cg2d_x (SOLVE_FOR_PRESSURE) S.D.=  7.18796152881821E+00
(PID.TID 0000.0001)      cg2d_init_res =   1.94057137002261E-01
(PID.TID 0000.0001)      cg2d_iters(min,last) =      -1     129
(PID.TID 0000.0001)      cg2d_last_res =   9.63059402143944E-14
(PID.TID 0000.0001) // =======================================================
(PID.TID 0000.0001) // Begin MONITOR dynamic field statistics
(PID.TID 0000.0001) // =======================================================
(PID.TID 0000.0001) %MON time_tsnumber                =                    89
(PID.TID 0000.0001) %MON time_secondsf                =   7.6896000000000E+06
(PID.TID 0000.0001) %MON dynstat_eta_max              =   9.1013775096625E-01
(PID.TID 0000.0001) %MON dynstat_eta_min              =  -1.9335251181175E+00
(PID.TID 0000.0001) %MON dynstat_eta_mean             =  -5.7543414839150E-03
(PID.TID 0000.0001) %MON dynstat_eta_sd               =   6.3056311650169E-01
(PID.TID 0000.0001) %MON dynstat_eta_del2             =   2.5344996281023E-03
(PID.TID 0000.0001) %MON dynstat_uvel_max             =   1.5059623335353E-01
(PID.TID 0000.0001) %MON dynstat_uvel_min             =  -1.3574498497419E-01
(PID.TID 0000.0001) %MON dynstat_uvel_mean            =   2.4595031133002E-03
(PID.TID 0000.0001) %MON dynstat_uvel_sd              =   1.4254088726077E-02
(PID.TID 0000.0001) %MON dynstat_uvel_del2            =   9.2939044775615E-05
(PID.TID 0000.0001) %MON dynstat_vvel_max             =   1.3622235487283E-01
(PID.TID 0000.0001) %MON dynstat_vvel_min             =  -8.5295219638498E-02
(PID.TID 0000.0001) %MON dynstat_vvel_mean            =   4.6370147514900E-05
(PID.TID 0000.0001) %MON dynstat_vvel_sd              =   8.0642714696022E-03
(PID.TID 0000.0001) %MON dynstat_vvel_del2            =   7.5434239672521E-05
(PID.TID 0000.0001) %MON dynstat_wvel_max             =   1.5022901173803E-04
(PID.TID 0000.0001) %MON dynstat_wvel_min             =  -5.8575305572369E-05
(PID.TID 0000.0001) %MON dynstat_wvel_mean            =   1.5344801408910E-23
(PID.TID 0000.0001) %MON dynstat_wvel_sd              =   9.7942106320399E-06
(PID.TID 0000.0001) %MON dynstat_wvel_del2            =   9.6319651688561E-08
(PID.TID 0000.0001) %MON dynstat_theta_max            =   3.1196625108151E+01
(PID.TID 0000.0001) %MON dynstat_theta_min            =  -1.9346848865310E+00
(PID.TID 0000.0001) %MON dynstat_theta_mean           =   3.6342780797754E+00
(PID.TID 0000.0001) %MON dynstat_theta_sd             =   4.4287051607826E+00
(PID.TID 0000.0001) %MON dynstat_theta_del2           =   4.8281294500582E-03
(PID.TID 0000.0001) %MON dynstat_salt_max             =   3.7475114363908E+01
(PID.TID 0000.0001) %MON dynstat_salt_min             =   2.9948269607950E+01
(PID.TID 0000.0001) %MON dynstat_salt_mean            =   3.4728002809299E+01
(PID.TID 0000.0001) %MON dynstat_salt_sd              =   2.9664379478232E-01
(PID.TID 0000.0001) %MON dynstat_salt_del2            =   9.9791934519204E-04
(PID.TID 0000.0001) %MON dynstat_sst_max              =   3.1196625108151E+01
(PID.TID 0000.0001) %MON dynstat_sst_min              =  -1.9346848865310E+00
(PID.TID 0000.0001) %MON dynstat_sst_mean             =   1.9060252713534E+01
(PID.TID 0000.0001) %MON dynstat_sst_sd               =   9.2470022769104E+00
(PID.TID 0000.0001) %MON dynstat_sst_del2             =   2.9272332323669E-02
(PID.TID 0000.0001) %MON dynstat_sss_max              =   3.7475114363908E+01
(PID.TID 0000.0001) %MON dynstat_sss_min              =   2.9948269607950E+01
(PID.TID 0000.0001) %MON dynstat_sss_mean             =   3.4847246119806E+01
(PID.TID 0000.0001) %MON dynstat_sss_sd               =   9.9039163479602E-01
(PID.TID 0000.0001) %MON dynstat_sss_del2             =   8.3007696903756E-03
(PID.TID 0000.0001) %MON forcing_qnet_max             =   2.1333963826497E+02
(PID.TID 0000.0001) %MON forcing_qnet_min             =  -1.5829163869222E+02
(PID.TID 0000.0001) %MON forcing_qnet_mean            =  -2.1035924135394E+00
(PID.TID 0000.0001) %MON forcing_qnet_sd              =   3.9378744149303E+01
(PID.TID 0000.0001) %MON forcing_qnet_del2            =   7.8682598248639E-01
(PID.TID 0000.0001) %MON forcing_qsw_max              =   0.0000000000000E+00
(PID.TID 0000.0001) %MON forcing_qsw_min              =   0.0000000000000E+00
(PID.TID 0000.0001) %MON forcing_qsw_mean             =   0.0000000000000E+00
(PID.TID 0000.0001) %MON forcing_qsw_sd               =   0.0000000000000E+00
(PID.TID 0000.0001) %MON forcing_qsw_del2             =   0.0000000000000E+00
(PID.TID 0000.0001) %MON forcing_empmr_max            =   6.7858598621721E-05
(PID.TID 0000.0001) %MON forcing_empmr_min            =  -8.3457416621968E-05
(PID.TID 0000.0001) %MON forcing_empmr_mean           =   2.5892131092034E-07
(PID.TID 0000.0001) %MON forcing_empmr_sd             =   2.5615270764388E-05
(PID.TID 0000.0001) %MON forcing_empmr_del2           =   3.6333336440731E-07
(PID.TID 0000.0001) %MON forcing_fu_max               =   3.4887377023697E-01
(PID.TID 0000.0001) %MON forcing_fu_min               =  -4.0068635642529E-01
(PID.TID 0000.0001) %MON forcing_fu_mean              =   1.8803232040261E-02
(PID.TID 0000.0001) %MON forcing_fu_sd                =   1.0027933019138E-01
(PID.TID 0000.0001) %MON forcing_fu_del2              =   7.7731111628185E-04
(PID.TID 0000.0001) %MON forcing_fv_max               =   1.8205233017604E-01
(PID.TID 0000.0001) %MON forcing_fv_min               =  -1.4903136293093E-01
(PID.TID 0000.0001) %MON forcing_fv_mean              =  -7.0553786991952E-03
(PID.TID 0000.0001) %MON forcing_fv_sd                =   3.8949486198953E-02
(PID.TID 0000.0001) %MON forcing_fv_del2              =   4.2056480226922E-04
(PID.TID 0000.0001) %MON trAdv_CFL_u_max              =   4.3185624067562E-02
(PID.TID 0000.0001) %MON trAdv_CFL_v_max              =   2.6425255983404E-02
(PID.TID 0000.0001) %MON trAdv_CFL_w_max              =   3.4466953752826E-02
(PID.TID 0000.0001) %MON advcfl_uvel_max              =   4.3852252070258E-02
(PID.TID 0000.0001) %MON advcfl_vvel_max              =   2.6465818807882E-02
(PID.TID 0000.0001) %MON advcfl_wvel_max              =   3.5074371423623E-02
(PID.TID 0000.0001) %MON advcfl_W_hf_max              =   3.7653369322419E-02
(PID.TID 0000.0001) %MON pe_b_mean                    =   5.0883209166594E-04
(PID.TID 0000.0001) %MON ke_max                       =   1.2696659326272E-02
(PID.TID 0000.0001) %MON ke_mean                      =   1.2425243178287E-04
(PID.TID 0000.0001) %MON ke_vol                       =   1.3226782436723E+18
(PID.TID 0000.0001) %MON vort_r_min                   =  -3.6012773291152E-07
(PID.TID 0000.0001) %MON vort_r_max                   =   3.9157198320792E-07
(PID.TID 0000.0001) %MON vort_a_mean                  =  -2.5274807150132E-05
(PID.TID 0000.0001) %MON vort_a_sd                    =   7.3604661804528E-05
(PID.TID 0000.0001) %MON vort_p_mean                  =  -3.1845655487857E-05
(PID.TID 0000.0001) %MON vort_p_sd                    =   1.3162485796952E-04
(PID.TID 0000.0001) %MON surfExpan_theta_mean         =  -1.9784622467760E-07
(PID.TID 0000.0001) %MON surfExpan_salt_mean          =   8.3688605250753E-08
(PID.TID 0000.0001) // =======================================================
(PID.TID 0000.0001) // End MONITOR dynamic field statistics
(PID.TID 0000.0001) // =======================================================
 EXTERNAL_FIELDS_LOAD,        89 : iP,iLd,i0,i1=    3    4    3    4 ; Wght=  0.5333333333  0.4666666667
 EXTERNAL_FIELDS_LOAD: (fu0,1),fu,fv= -2.7199E-02 -3.7252E-02 -3.1890E-02 -1.6742E-02
 EXTERNAL_FIELDS_LOAD: SST,SSS,Q,E-P= -8.1592E-02  3.4574E+01  1.6346E+02  8.4686E-06
DEBUG_STATS_RL:          Uvel (THERMODYNAMICS)  min= -1.35744984974187E-01
DEBUG_STATS_RL:          Uvel (THERMODYNAMICS)  max=  1.50596233353527E-01
DEBUG_STATS_RL:          Uvel (THERMODYNAMICS) mean=  6.01720726249833E-03
DEBUG_STATS_RL:          Uvel (THERMODYNAMICS) S.D.=  2.20998810041933E-02
DEBUG_STATS_RL:          Vvel (THERMODYNAMICS)  min= -8.52952196384981E-02
DEBUG_STATS_RL:          Vvel (THERMODYNAMICS)  max=  1.36222354872834E-01
DEBUG_STATS_RL:          Vvel (THERMODYNAMICS) mean=  9.76269734112985E-04
DEBUG_STATS_RL:          Vvel (THERMODYNAMICS) S.D.=  1.30610673637926E-02
DEBUG_STATS_RL:          Wvel (THERMODYNAMICS)  min= -5.85753055723686E-05
DEBUG_STATS_RL:          Wvel (THERMODYNAMICS)  max=  1.50229011738025E-04
DEBUG_STATS_RL:          Wvel (THERMODYNAMICS) mean= -2.26501220155045E-08
DEBUG_STATS_RL:          Wvel (THERMODYNAMICS) S.D.=  8.66348293502134E-06
DEBUG_STATS_RL:         Theta (THERMODYNAMICS)  min= -1.93351137695792E+00
DEBUG_STATS_RL:         Theta (THERMODYNAMICS)  max=  3.12122538186928E+01
DEBUG_STATS_RL:         Theta (THERMODYNAMICS) mean=  3.23046943608334E+00
DEBUG_STATS_RL:         Theta (THERMODYNAMICS) S.D.=  5.88891989831070E+00
DEBUG_STATS_RL:          Salt (THERMODYNAMICS)  min=  9.99999999999997E-03
DEBUG_STATS_RL:          Salt (THERMODYNAMICS)  max=  3.74757507828446E+01
DEBUG_STATS_RL:          Salt (THERMODYNAMICS) mean=  1.88547528021651E+01
DEBUG_STATS_RL:          Salt (THERMODYNAMICS) S.D.=  1.73003105416482E+01
DEBUG_STATS_RL:         GtNm1 (THERMODYNAMICS)  min= -3.31683189356737E-06
DEBUG_STATS_RL:         GtNm1 (THERMODYNAMICS)  max=  2.12467482979946E-06
DEBUG_STATS_RL:         GtNm1 (THERMODYNAMICS) mean= -1.53834667141478E-09
DEBUG_STATS_RL:         GtNm1 (THERMODYNAMICS) S.D.=  1.36336574073244E-07
DEBUG_STATS_RL:         GsNm1 (THERMODYNAMICS)  min= -3.66169045562442E-07
DEBUG_STATS_RL:         GsNm1 (THERMODYNAMICS)  max=  2.53402278295190E-07
DEBUG_STATS_RL:         GsNm1 (THERMODYNAMICS) mean= -2.07875395550214E-10
DEBUG_STATS_RL:         GsNm1 (THERMODYNAMICS) S.D.=  1.34723411673144E-08
DEBUG_STATS_RL:                EtaN (DYNAMICS)  min= -1.93352511811752E+00
DEBUG_STATS_RL:                EtaN (DYNAMICS)  max=  9.10137750966255E-01
DEBUG_STATS_RL:                EtaN (DYNAMICS) mean= -1.92184950469147E-01
DEBUG_STATS_RL:                EtaN (DYNAMICS) S.D.=  7.32717790909095E-01
DEBUG_STATS_RL:                Uvel (DYNAMICS)  min= -1.35744984974187E-01
DEBUG_STATS_RL:                Uvel (DYNAMICS)  max=  1.50596233353527E-01
DEBUG_STATS_RL:                Uvel (DYNAMICS) mean=  6.01720726249833E-03
DEBUG_STATS_RL:                Uvel (DYNAMICS) S.D.=  2.20998810041933E-02
DEBUG_STATS_RL:                Vvel (DYNAMICS)  min= -8.52952196384981E-02
DEBUG_STATS_RL:                Vvel (DYNAMICS)  max=  1.36222354872834E-01
DEBUG_STATS_RL:                Vvel (DYNAMICS) mean=  9.76269734112985E-04
DEBUG_STATS_RL:                Vvel (DYNAMICS) S.D.=  1.30610673637926E-02
DEBUG_STATS_RL:                Wvel (DYNAMICS)  min= -5.85753055723686E-05
DEBUG_STATS_RL:                Wvel (DYNAMICS)  max=  1.50229011738025E-04
DEBUG_STATS_RL:                Wvel (DYNAMICS) mean= -2.26501220155045E-08
DEBUG_STATS_RL:                Wvel (DYNAMICS) S.D.=  8.66348293502134E-06
DEBUG_STATS_RL:               Theta (DYNAMICS)  min= -1.93351137695792E+00
DEBUG_STATS_RL:               Theta (DYNAMICS)  max=  3.12122538186928E+01
DEBUG_STATS_RL:               Theta (DYNAMICS) mean=  3.23046943608334E+00
DEBUG_STATS_RL:               Theta (DYNAMICS) S.D.=  5.88891989831070E+00
DEBUG_STATS_RL:                Salt (DYNAMICS)  min=  9.99999999999997E-03
DEBUG_STATS_RL:                Salt (DYNAMICS)  max=  3.74757507828446E+01
DEBUG_STATS_RL:                Salt (DYNAMICS) mean=  1.88547528021651E+01
DEBUG_STATS_RL:                Salt (DYNAMICS) S.D.=  1.73003105416482E+01
DEBUG_STATS_RL:                  Gu (DYNAMICS)  min= -1.34772964704907E-01
DEBUG_STATS_RL:                  Gu (DYNAMICS)  max=  1.47830099829333E-01
DEBUG_STATS_RL:                  Gu (DYNAMICS) mean=  5.96316046631396E-03
DEBUG_STATS_RL:                  Gu (DYNAMICS) S.D.=  2.24677272904433E-02
DEBUG_STATS_RL:                  Gv (DYNAMICS)  min= -8.35091160870491E-02
DEBUG_STATS_RL:                  Gv (DYNAMICS)  max=  1.36346310337922E-01
DEBUG_STATS_RL:                  Gv (DYNAMICS) mean=  3.53395794448299E-03
DEBUG_STATS_RL:                  Gv (DYNAMICS) S.D.=  1.46340737610267E-02
DEBUG_STATS_RL:               GuNm1 (DYNAMICS)  min= -9.83077957339851E-06
DEBUG_STATS_RL:               GuNm1 (DYNAMICS)  max=  9.70301871462232E-06
DEBUG_STATS_RL:               GuNm1 (DYNAMICS) mean=  1.36716348080198E-08
DEBUG_STATS_RL:               GuNm1 (DYNAMICS) S.D.=  1.22598148242774E-06
DEBUG_STATS_RL:               GvNm1 (DYNAMICS)  min= -9.30610487303678E-06
DEBUG_STATS_RL:               GvNm1 (DYNAMICS)  max=  1.52168375746816E-05
DEBUG_STATS_RL:               GvNm1 (DYNAMICS) mean=  7.38819115225390E-07
DEBUG_STATS_RL:               GvNm1 (DYNAMICS) S.D.=  2.60578362681575E-06
DEBUG_STATS_RL:               GtNm1 (DYNAMICS)  min= -3.31683189356737E-06
DEBUG_STATS_RL:               GtNm1 (DYNAMICS)  max=  2.12467482979946E-06
DEBUG_STATS_RL:               GtNm1 (DYNAMICS) mean= -1.53834667141478E-09
DEBUG_STATS_RL:               GtNm1 (DYNAMICS) S.D.=  1.36336574073244E-07
DEBUG_STATS_RL:               GsNm1 (DYNAMICS)  min= -3.66169045562442E-07
DEBUG_STATS_RL:               GsNm1 (DYNAMICS)  max=  2.53402278295190E-07
DEBUG_STATS_RL:               GsNm1 (DYNAMICS) mean= -2.07875395550214E-10
DEBUG_STATS_RL:               GsNm1 (DYNAMICS) S.D.=  1.34723411673144E-08
DEBUG_STATS_RL:    cg2d_b (SOLVE_FOR_PRESSURE)  min= -2.88049473032314E+04
DEBUG_STATS_RL:    cg2d_b (SOLVE_FOR_PRESSURE)  max=  3.05373082103428E+04
DEBUG_STATS_RL:    cg2d_b (SOLVE_FOR_PRESSURE) mean=  5.53403764508502E+00
DEBUG_STATS_RL:    cg2d_b (SOLVE_FOR_PRESSURE) S.D.=  3.99783421878594E+03
 cg2d: Sum(rhs),rhsMax =   4.19529352755176E-01  2.00577216462949E+00
(PID.TID 0000.0001)  cg2d: iter=     1 ; resid.=  6.54774795835864E-02
(PID.TID 0000.0001)  cg2d: iter=     2 ; resid.=  5.04197487879754E-02
(PID.TID 0000.0001)  cg2d: iter=     3 ; resid.=  5.11387864755414E-02
(PID.TID 0000.0001)  cg2d: iter=     4 ; resid.=  4.94937832707246E-02
(PID.TID 0000.0001)  cg2d: iter=     5 ; resid.=  4.23428261371032E-02
(PID.TID 0000.0001)  cg2d: iter=     6 ; resid.=  4.21401619779724E-02
(PID.TID 0000.0001)  cg2d: iter=     7 ; resid.=  3.41871382586753E-02
(PID.TID 0000.0001)  cg2d: iter=     8 ; resid.=  2.52581987895730E-02
(PID.TID 0000.0001)  cg2d: iter=     9 ; resid.=  1.80753836183747E-02
(PID.TID 0000.0001)  cg2d: iter=    10 ; resid.=  1.34443919749256E-02
(PID.TID 0000.0001)  cg2d: iter=    11 ; resid.=  1.09904369028699E-02
(PID.TID 0000.0001)  cg2d: iter=    12 ; resid.=  9.22516411829045E-03
(PID.TID 0000.0001)  cg2d: iter=    13 ; resid.=  7.96134296191522E-03
(PID.TID 0000.0001)  cg2d: iter=    14 ; resid.=  6.88011347987905E-03
(PID.TID 0000.0001)  cg2d: iter=    15 ; resid.=  5.73735402261924E-03
(PID.TID 0000.0001)  cg2d: iter=    16 ; resid.=  4.94739332241608E-03
(PID.TID 0000.0001)  cg2d: iter=    17 ; resid.=  4.68409113866544E-03
(PID.TID 0000.0001)  cg2d: iter=    18 ; resid.=  3.92441096011119E-03
(PID.TID 0000.0001)  cg2d: iter=    19 ; resid.=  3.09774652748514E-03
(PID.TID 0000.0001)  cg2d: iter=    20 ; resid.=  2.48730887991362E-03
(PID.TID 0000.0001)  cg2d: iter=    21 ; resid.=  1.97577075925662E-03
(PID.TID 0000.0001)  cg2d: iter=    22 ; resid.=  1.75437863362965E-03
(PID.TID 0000.0001)  cg2d: iter=    23 ; resid.=  1.44555806206340E-03
(PID.TID 0000.0001)  cg2d: iter=    24 ; resid.=  1.25878886112869E-03
(PID.TID 0000.0001)  cg2d: iter=    25 ; resid.=  1.03467442377205E-03
(PID.TID 0000.0001)  cg2d: iter=    26 ; resid.=  7.63262336501054E-04
(PID.TID 0000.0001)  cg2d: iter=    27 ; resid.=  6.09713379591157E-04
(PID.TID 0000.0001)  cg2d: iter=    28 ; resid.=  4.89072850776617E-04
(PID.TID 0000.0001)  cg2d: iter=    29 ; resid.=  4.07156591229970E-04
(PID.TID 0000.0001)  cg2d: iter=    30 ; resid.=  3.40306350471591E-04
(PID.TID 0000.0001)  cg2d: iter=    31 ; resid.=  2.90874179585016E-04
(PID.TID 0000.0001)  cg2d: iter=    32 ; resid.=  2.28916188078535E-04
(PID.TID 0000.0001)  cg2d: iter=    33 ; resid.=  1.70626593186841E-04
(PID.TID 0000.0001)  cg2d: iter=    34 ; resid.=  1.50763320923176E-04
(PID.TID 0000.0001)  cg2d: iter=    35 ; resid.=  1.31489352589304E-04
(PID.TID 0000.0001)  cg2d: iter=    36 ; resid.=  1.05758153505347E-04
(PID.TID 0000.0001)  cg2d: iter=    37 ; resid.=  9.45436880670849E-05
(PID.TID 0000.0001)  cg2d: iter=    38 ; resid.=  7.98737631707586E-05
(PID.TID 0000.0001)  cg2d: iter=    39 ; resid.=  6.91747604771734E-05
(PID.TID 0000.0001)  cg2d: iter=    40 ; resid.=  5.77385326947235E-05
(PID.TID 0000.0001)  cg2d: iter=    41 ; resid.=  4.73319845170395E-05
(PID.TID 0000.0001)  cg2d: iter=    42 ; resid.=  3.91848681598491E-05
(PID.TID 0000.0001)  cg2d: iter=    43 ; resid.=  3.35334063852467E-05
(PID.TID 0000.0001)  cg2d: iter=    44 ; resid.=  2.75561305166152E-05
(PID.TID 0000.0001)  cg2d: iter=    45 ; resid.=  2.34723867554430E-05
(PID.TID 0000.0001)  cg2d: iter=    46 ; resid.=  1.84781162239041E-05
(PID.TID 0000.0001)  cg2d: iter=    47 ; resid.=  1.44032201603954E-05
(PID.TID 0000.0001)  cg2d: iter=    48 ; resid.=  1.29777970464463E-05
(PID.TID 0000.0001)  cg2d: iter=    49 ; resid.=  1.22817123195149E-05
(PID.TID 0000.0001)  cg2d: iter=    50 ; resid.=  1.04254481880268E-05
(PID.TID 0000.0001)  cg2d: iter=    51 ; resid.=  8.95720708505583E-06
(PID.TID 0000.0001)  cg2d: iter=    52 ; resid.=  7.68728754972792E-06
(PID.TID 0000.0001)  cg2d: iter=    53 ; resid.=  6.49231226323658E-06
(PID.TID 0000.0001)  cg2d: iter=    54 ; resid.=  4.89032535259057E-06
(PID.TID 0000.0001)  cg2d: iter=    55 ; resid.=  3.85949919423385E-06
(PID.TID 0000.0001)  cg2d: iter=    56 ; resid.=  3.45149453748092E-06
(PID.TID 0000.0001)  cg2d: iter=    57 ; resid.=  3.13869255838693E-06
(PID.TID 0000.0001)  cg2d: iter=    58 ; resid.=  2.55318042676440E-06
(PID.TID 0000.0001)  cg2d: iter=    59 ; resid.=  1.97762443724577E-06
(PID.TID 0000.0001)  cg2d: iter=    60 ; resid.=  1.75713703110873E-06
(PID.TID 0000.0001)  cg2d: iter=    61 ; resid.=  1.43992852627081E-06
(PID.TID 0000.0001)  cg2d: iter=    62 ; resid.=  1.18561444074917E-06
(PID.TID 0000.0001)  cg2d: iter=    63 ; resid.=  9.67674471000348E-07
(PID.TID 0000.0001)  cg2d: iter=    64 ; resid.=  7.49467402358802E-07
(PID.TID 0000.0001)  cg2d: iter=    65 ; resid.=  5.98627391333819E-07
(PID.TID 0000.0001)  cg2d: iter=    66 ; resid.=  4.88976157716310E-07
(PID.TID 0000.0001)  cg2d: iter=    67 ; resid.=  4.06674403542045E-07
(PID.TID 0000.0001)  cg2d: iter=    68 ; resid.=  3.51251247625934E-07
(PID.TID 0000.0001)  cg2d: iter=    69 ; resid.=  2.81994346225330E-07
(PID.TID 0000.0001)  cg2d: iter=    70 ; resid.=  2.26843455196600E-07
(PID.TID 0000.0001)  cg2d: iter=    71 ; resid.=  1.95688731915768E-07
(PID.TID 0000.0001)  cg2d: iter=    72 ; resid.=  1.73062251017081E-07
(PID.TID 0000.0001)  cg2d: iter=    73 ; resid.=  1.49577253698320E-07
(PID.TID 0000.0001)  cg2d: iter=    74 ; resid.=  1.34334261143302E-07
(PID.TID 0000.0001)  cg2d: iter=    75 ; resid.=  1.12211735643302E-07
(PID.TID 0000.0001)  cg2d: iter=    76 ; resid.=  8.75407689156827E-08
(PID.TID 0000.0001)  cg2d: iter=    77 ; resid.=  6.88234810270776E-08
(PID.TID 0000.0001)  cg2d: iter=    78 ; resid.=  5.95502466090959E-08
(PID.TID 0000.0001)  cg2d: iter=    79 ; resid.=  4.76153964395355E-08
(PID.TID 0000.0001)  cg2d: iter=    80 ; resid.=  3.81914902075017E-08
(PID.TID 0000.0001)  cg2d: iter=    81 ; resid.=  3.01380025136829E-08
(PID.TID 0000.0001)  cg2d: iter=    82 ; resid.=  2.10729379998472E-08
(PID.TID 0000.0001)  cg2d: iter=    83 ; resid.=  1.56344101860493E-08
(PID.TID 0000.0001)  cg2d: iter=    84 ; resid.=  1.17470190896888E-08
(PID.TID 0000.0001)  cg2d: iter=    85 ; resid.=  8.71824842163841E-09
(PID.TID 0000.0001)  cg2d: iter=    86 ; resid.=  6.59277114007116E-09
(PID.TID 0000.0001)  cg2d: iter=    87 ; resid.=  5.38525007321544E-09
(PID.TID 0000.0001)  cg2d: iter=    88 ; resid.=  4.44552267698111E-09
(PID.TID 0000.0001)  cg2d: iter=    89 ; resid.=  3.82081376679457E-09
(PID.TID 0000.0001)  cg2d: iter=    90 ; resid.=  3.17751281725070E-09
(PID.TID 0000.0001)  cg2d: iter=    91 ; resid.=  2.43639843044753E-09
(PID.TID 0000.0001)  cg2d: iter=    92 ; resid.=  1.90298488925191E-09
(PID.TID 0000.0001)  cg2d: iter=    93 ; resid.=  1.36571978867031E-09
(PID.TID 0000.0001)  cg2d: iter=    94 ; resid.=  1.06514440544937E-09
(PID.TID 0000.0001)  cg2d: iter=    95 ; resid.=  9.15169231166150E-10
(PID.TID 0000.0001)  cg2d: iter=    96 ; resid.=  7.26181802883504E-10
(PID.TID 0000.0001)  cg2d: iter=    97 ; resid.=  5.45143487303421E-10
(PID.TID 0000.0001)  cg2d: iter=    98 ; resid.=  4.43351624740445E-10
(PID.TID 0000.0001)  cg2d: iter=    99 ; resid.=  4.06697680416650E-10
(PID.TID 0000.0001)  cg2d: iter=   100 ; resid.=  3.78618879195681E-10
(PID.TID 0000.0001)  cg2d: iter=   101 ; resid.=  3.18063000742923E-10
(PID.TID 0000.0001)  cg2d: iter=   102 ; resid.=  2.45296917556557E-10
(PID.TID 0000.0001)  cg2d: iter=   103 ; resid.=  1.88764743176085E-10
(PID.TID 0000.0001)  cg2d: iter=   104 ; resid.=  1.48513581243981E-10
(PID.TID 0000.0001)  cg2d: iter=   105 ; resid.=  1.21197561166962E-10
(PID.TID 0000.0001)  cg2d: iter=   106 ; resid.=  8.85515117689157E-11
(PID.TID 0000.0001)  cg2d: iter=   107 ; resid.=  6.58276705082851E-11
(PID.TID 0000.0001)  cg2d: iter=   108 ; resid.=  4.85938092762496E-11
(PID.TID 0000.0001)  cg2d: iter=   109 ; resid.=  3.55092018773584E-11
(PID.TID 0000.0001)  cg2d: iter=   110 ; resid.=  2.67456813536705E-11
(PID.TID 0000.0001)  cg2d: iter=   111 ; resid.=  2.08183726195335E-11
(PID.TID 0000.0001)  cg2d: iter=   112 ; resid.=  1.57524182611421E-11
(PID.TID 0000.0001)  cg2d: iter=   113 ; resid.=  1.07213585873947E-11
(PID.TID 0000.0001)  cg2d: iter=   114 ; resid.=  8.51872287059271E-12
(PID.TID 0000.0001)  cg2d: iter=   115 ; resid.=  7.04152676490357E-12
(PID.TID 0000.0001)  cg2d: iter=   116 ; resid.=  5.48908455818028E-12
(PID.TID 0000.0001)  cg2d: iter=   117 ; resid.=  4.39390941177970E-12
(PID.TID 0000.0001)  cg2d: iter=   118 ; resid.=  3.44132732313366E-12
(PID.TID 0000.0001)  cg2d: iter=   119 ; resid.=  2.34949001607745E-12
(PID.TID 0000.0001)  cg2d: iter=   120 ; resid.=  1.79772100272076E-12
(PID.TID 0000.0001)  cg2d: iter=   121 ; resid.=  1.40430260945518E-12
(PID.TID 0000.0001)  cg2d: iter=   122 ; resid.=  9.94334385200680E-13
(PID.TID 0000.0001)  cg2d: iter=   123 ; resid.=  7.48457417154005E-13
(PID.TID 0000.0001)  cg2d: iter=   124 ; resid.=  5.73414461293868E-13
(PID.TID 0000.0001)  cg2d: iter=   125 ; resid.=  4.12090101785658E-13
(PID.TID 0000.0001)  cg2d: iter=   126 ; resid.=  3.02813169741386E-13
(PID.TID 0000.0001)  cg2d: iter=   127 ; resid.=  2.07299623493218E-13
(PID.TID 0000.0001)  cg2d: iter=   128 ; resid.=  1.58724894162501E-13
(PID.TID 0000.0001)  cg2d: iter=   129 ; resid.=  1.11386355772778E-13
(PID.TID 0000.0001)  cg2d: iter=   130 ; resid.=  8.10637826180226E-14
DEBUG_STATS_RL:    cg2d_x (SOLVE_FOR_PRESSURE)  min= -1.88266713462869E+01
DEBUG_STATS_RL:    cg2d_x (SOLVE_FOR_PRESSURE)  max=  8.78534356253288E+00
DEBUG_STATS_RL:    cg2d_x (SOLVE_FOR_PRESSURE) mean= -1.87581392927031E+00
DEBUG_STATS_RL:    cg2d_x (SOLVE_FOR_PRESSURE) S.D.=  7.14496711781229E+00
(PID.TID 0000.0001)      cg2d_init_res =   1.91307370427900E-01
(PID.TID 0000.0001)      cg2d_iters(min,last) =      -1     130
(PID.TID 0000.0001)      cg2d_last_res =   8.10637826180226E-14
(PID.TID 0000.0001) // =======================================================
(PID.TID 0000.0001) // Begin MONITOR dynamic field statistics
(PID.TID 0000.0001) // =======================================================
(PID.TID 0000.0001) %MON time_tsnumber                =                    90
(PID.TID 0000.0001) %MON time_secondsf                =   7.7760000000000E+06
(PID.TID 0000.0001) %MON dynstat_eta_max              =   8.9554980250088E-01
(PID.TID 0000.0001) %MON dynstat_eta_min              =  -1.9191306163391E+00
(PID.TID 0000.0001) %MON dynstat_eta_mean             =  -5.7740820846323E-03
(PID.TID 0000.0001) %MON dynstat_eta_sd               =   6.2572259556587E-01
(PID.TID 0000.0001) %MON dynstat_eta_del2             =   2.5378635407634E-03
(PID.TID 0000.0001) %MON dynstat_uvel_max             =   1.4812218640141E-01
(PID.TID 0000.0001) %MON dynstat_uvel_min             =  -1.3601649138678E-01
(PID.TID 0000.0001) %MON dynstat_uvel_mean            =   2.4476503083061E-03
(PID.TID 0000.0001) %MON dynstat_uvel_sd              =   1.4219990720095E-02
(PID.TID 0000.0001) %MON dynstat_uvel_del2            =   9.3058043141433E-05
(PID.TID 0000.0001) %MON dynstat_vvel_max             =   1.3588029156333E-01
(PID.TID 0000.0001) %MON dynstat_vvel_min             =  -8.5245024675026E-02
(PID.TID 0000.0001) %MON dynstat_vvel_mean            =   4.8693589725354E-05
(PID.TID 0000.0001) %MON dynstat_vvel_sd              =   8.0362048802990E-03
(PID.TID 0000.0001) %MON dynstat_vvel_del2            =   7.5544185640779E-05
(PID.TID 0000.0001) %MON dynstat_wvel_max             =   1.4384746784962E-04
(PID.TID 0000.0001) %MON dynstat_wvel_min             =  -5.6945613883296E-05
(PID.TID 0000.0001) %MON dynstat_wvel_mean            =   1.0734479909372E-22
(PID.TID 0000.0001) %MON dynstat_wvel_sd              =   9.7003049925106E-06
(PID.TID 0000.0001) %MON dynstat_wvel_del2            =   9.5361906764093E-08
(PID.TID 0000.0001) %MON dynstat_theta_max            =   3.1212253818693E+01
(PID.TID 0000.0001) %MON dynstat_theta_min            =  -1.9335113769579E+00
(PID.TID 0000.0001) %MON dynstat_theta_mean           =   3.6342909800244E+00
(PID.TID 0000.0001) %MON dynstat_theta_sd             =   4.4287918678589E+00
(PID.TID 0000.0001) %MON dynstat_theta_del2           =   4.8252724248548E-03
(PID.TID 0000.0001) %MON dynstat_salt_max             =   3.7475750782845E+01
(PID.TID 0000.0001) %MON dynstat_salt_min             =   2.9951736803771E+01
(PID.TID 0000.0001) %MON dynstat_salt_mean            =   3.4728001413994E+01
(PID.TID 0000.0001) %MON dynstat_salt_sd              =   2.9664807054881E-01
(PID.TID 0000.0001) %MON dynstat_salt_del2            =   9.9827109152311E-04
(PID.TID 0000.0001) %MON dynstat_sst_max              =   3.1212253818693E+01
(PID.TID 0000.0001) %MON dynstat_sst_min              =  -1.9335113769579E+00
(PID.TID 0000.0001) %MON dynstat_sst_mean             =   1.9057986658022E+01
(PID.TID 0000.0001) %MON dynstat_sst_sd               =   9.2543319182443E+00
(PID.TID 0000.0001) %MON dynstat_sst_del2             =   2.9300122070802E-02
(PID.TID 0000.0001) %MON dynstat_sss_max              =   3.7475750782845E+01
(PID.TID 0000.0001) %MON dynstat_sss_min              =   2.9951736803771E+01
(PID.TID 0000.0001) %MON dynstat_sss_mean             =   3.4847094888311E+01
(PID.TID 0000.0001) %MON dynstat_sss_sd               =   9.9081143583833E-01
(PID.TID 0000.0001) %MON dynstat_sss_del2             =   8.3106540854106E-03
(PID.TID 0000.0001) %MON forcing_qnet_max             =   2.0863440348307E+02
(PID.TID 0000.0001) %MON forcing_qnet_min             =  -1.5786364237467E+02
(PID.TID 0000.0001) %MON forcing_qnet_mean            =  -1.7065559845698E+00
(PID.TID 0000.0001) %MON forcing_qnet_sd              =   3.9345736238707E+01
(PID.TID 0000.0001) %MON forcing_qnet_del2            =   7.8520764018377E-01
(PID.TID 0000.0001) %MON forcing_qsw_max              =   0.0000000000000E+00
(PID.TID 0000.0001) %MON forcing_qsw_min              =   0.0000000000000E+00
(PID.TID 0000.0001) %MON forcing_qsw_mean             =   0.0000000000000E+00
(PID.TID 0000.0001) %MON forcing_qsw_sd               =   0.0000000000000E+00
(PID.TID 0000.0001) %MON forcing_qsw_del2             =   0.0000000000000E+00
(PID.TID 0000.0001) %MON forcing_empmr_max            =   6.7762427609826E-05
(PID.TID 0000.0001) %MON forcing_empmr_min            =  -8.3472262701889E-05
(PID.TID 0000.0001) %MON forcing_empmr_mean           =   2.3647594609277E-07
(PID.TID 0000.0001) %MON forcing_empmr_sd             =   2.5588502568847E-05
(PID.TID 0000.0001) %MON forcing_empmr_del2           =   3.6361092950638E-07
(PID.TID 0000.0001) %MON forcing_fu_max               =   3.4838171601295E-01
(PID.TID 0000.0001) %MON forcing_fu_min               =  -4.0161942839622E-01
(PID.TID 0000.0001) %MON forcing_fu_mean              =   1.8676039943328E-02
(PID.TID 0000.0001) %MON forcing_fu_sd                =   1.0030398135610E-01
(PID.TID 0000.0001) %MON forcing_fu_del2              =   7.7661497197637E-04
(PID.TID 0000.0001) %MON forcing_fv_max               =   1.8195632894834E-01
(PID.TID 0000.0001) %MON forcing_fv_min               =  -1.4562365015348E-01
(PID.TID 0000.0001) %MON forcing_fv_mean              =  -7.0189020268222E-03
(PID.TID 0000.0001) %MON forcing_fv_sd                =   3.8838554387626E-02
(PID.TID 0000.0001) %MON forcing_fv_del2              =   4.1811090198709E-04
(PID.TID 0000.0001) %MON trAdv_CFL_u_max              =   4.3861158776290E-02
(PID.TID 0000.0001) %MON trAdv_CFL_v_max              =   2.6422807766894E-02
(PID.TID 0000.0001) %MON trAdv_CFL_w_max              =   3.2826014281083E-02
(PID.TID 0000.0001) %MON advcfl_uvel_max              =   4.4318624792580E-02
(PID.TID 0000.0001) %MON advcfl_vvel_max              =   2.6399361392881E-02
(PID.TID 0000.0001) %MON advcfl_wvel_max              =   3.3420199948947E-02
(PID.TID 0000.0001) %MON advcfl_W_hf_max              =   3.5877567592252E-02
(PID.TID 0000.0001) %MON pe_b_mean                    =   5.0105091151661E-04
(PID.TID 0000.0001) %MON ke_max                       =   1.2482625143588E-02
(PID.TID 0000.0001) %MON ke_mean                      =   1.2358213637684E-04
(PID.TID 0000.0001) %MON ke_vol                       =   1.3226782436723E+18
(PID.TID 0000.0001) %MON vort_r_min                   =  -3.5611154485149E-07
(PID.TID 0000.0001) %MON vort_r_max                   =   3.9884148160159E-07
(PID.TID 0000.0001) %MON vort_a_mean                  =  -2.5274807158516E-05
(PID.TID 0000.0001) %MON vort_a_sd                    =   7.3604661185926E-05
(PID.TID 0000.0001) %MON vort_p_mean                  =  -3.1845655498419E-05
(PID.TID 0000.0001) %MON vort_p_sd                    =   1.3162483888769E-04
(PID.TID 0000.0001) %MON surfExpan_theta_mean         =  -1.8078571371308E-07
(PID.TID 0000.0001) %MON surfExpan_salt_mean          =   7.8978700991317E-08
(PID.TID 0000.0001) // =======================================================
(PID.TID 0000.0001) // End MONITOR dynamic field statistics
(PID.TID 0000.0001) // =======================================================
(PID.TID 0000.0001) // =======================================================
(PID.TID 0000.0001) // Field Current uVel   at iteration         90
(PID.TID 0000.0001) // CMIN =         -1.360164913867846E-01
(PID.TID 0000.0001) // CMAX =          1.481221864014128E-01
(PID.TID 0000.0001) // CINT =          1.052365473289620E-02
(PID.TID 0000.0001) // SYMBOLS (CMIN->CMAX): -abcdefghijklmnopqrstuvwxyz+
(PID.TID 0000.0001) //                  0.0: .
(PID.TID 0000.0001) // RANGE I (Lo:Hi:Step):(     1:    90:     1)
(PID.TID 0000.0001) // RANGE J (Lo:Hi:Step):(    40:     1:    -1)
(PID.TID 0000.0001) // RANGE K (Lo:Hi:Step):(   1:   1:   1)
(PID.TID 0000.0001) // =======================================================
(PID.TID 0000.0001) K =   1
(PID.TID 0000.0001)                I=10      I=20      I=30      I=40      I=50      I=60      I=70      I=80      I=90
(PID.TID 0000.0001) |--J--|123456789|123456789|123456789|123456789|123456789|123456789|123456789|123456789|123456789|
(PID.TID 0000.0001)     40 mmmlm..mmllmmmmmmmm...................................................................llll
(PID.TID 0000.0001)     39 mnnmnnnnnmnnnm....m......................................................mmm.........lkkkl
(PID.TID 0000.0001)     38 nnoonmmmmmmmm............................................................mmmm.......lkklmm
(PID.TID 0000.0001)     37 noo...................................................................m....ll....klkl..mnn
(PID.TID 0000.0001)     36 po..........................................lll.....................mmmmmmlkkl..jkklmmnoop
(PID.TID 0000.0001)     35 on..................................mmm...llllml....kllm............mm.....mmmlkjmnnmmnooo
(PID.TID 0000.0001)     34 ....................................mmm..lmmmmmm..mkklmmm...................npooonnnnnnm..
(PID.TID 0000.0001)     33 .....................................mmmmmnooooonnnnnooonnm..................qppqpponmmll.
(PID.TID 0000.0001)     32 .....................................lmnnnoppppppoopppqppon.................rrsrqqponlllm.
(PID.TID 0000.0001)     31 .....................................nppqqqqqqqqqqqrrrqqpon...............ostsuutrqponmm..
(PID.TID 0000.0001)     30 ....................................rttuutttsrrrrrrqqqpoonm.............ortttttttrqpooon..
(PID.TID 0000.0001)     29 ..................................osuuuuttssrrqqppoonnmmmmmm............sssqppooppoonnnm..
(PID.TID 0000.0001)     28 ................................pqrrqqqppoonnoonmmmmmllllllll..........qrpnmmlmmnnnmmmmm..
(PID.TID 0000.0001)     27 ...............m...............qsqpnnnnnnnnmmnmmmmmmmmlllkkjkk....mmn..ppoonnmmmmmmllk....
(PID.TID 0000.0001)     26 ...............mn............kknnlkjjkklllllkkkjjkkkkjiiiihhikmm..mmmmnnmmnnmllkkkjiii....
(PID.TID 0000.0001)     25 ...............pom....nm....kiikkihgghhhghhhgggghhhhhggghhijklmnm....kkkhikkkjjkkkjjij....
(PID.TID 0000.0001)     24 .............nqrqom..noo....nn..nmjhiihhijjiiijkkkkkkklmmnnoonnnnnnm..mmklnooooopoppoo....
(PID.TID 0000.0001)     23 .............pponml..lmn....nm...kjijijjkkkkllmnnmllmnpqrqqqpomllmmmm.....nnnomnoopqqp....
(PID.TID 0000.0001)     22 o............jheeedehghk....l..jhhhggfffgfffhghijjijkloqrqqponllkkkkjk.......migfgkmpoqpoo
(PID.TID 0000.0001)     21 opp.........hggedc-bdfhll......killjigggggfffggghghhiikmnmmllmnnnmlkkk.........gbbfjmlorqp
(PID.TID 0000.0001)     20 mnm........ljlllljfgilmon.........nmmmmlmnnllllkkjiiihijjihgijlmmkjjik..........hdehiijlll
(PID.TID 0000.0001)     19 jmm........kijlmmmjjkmlmmnm....im......oopqqqpponlkkjjkjihhhgghihggghi............jhhhiihi
(PID.TID 0000.0001)     18 jlm........lgegihjijkjkkkkjjiigil....lnnnmnponnmlkjjiijjiiiiiijihhhhijk...........lkkjjjii
(PID.TID 0000.0001)     17 kkl..........hffghgiihijkjjjjjj......llkkkkllkjjjjjiihiiiiiiijjjjijkklk..........mmkjjjjjk
(PID.TID 0000.0001)     16 hhi.......n..mihhhhiijjjkkklll........llllkkllkkkllkkkkjiiijiiiiiijjkjjl.........nmkihhhhh
(PID.TID 0000.0001)     15 feei.....mn..onnmlnnmnmmmmlll..........llmmmnnnooooonnmmllkkkjkjjjjiihgil.......monlkjihhg
(PID.TID 0000.0001)     14 hgfh.....lkkkmmnnmoonnmmnmmll..........llmnnooopppppponnnnmmlllkjkkjjjiik......kkmmmlkjjii
(PID.TID 0000.0001)     13 kjih.....mlkjkklllmnmlllmmmll..........mmmnoooooooooooooooooonmlllmmmllll.....klmmmmlllllk
(PID.TID 0000.0001)     12 onmklnklmpponnnnnnnnnnnoponmmmmmml.....ooonmnoooooonnnoopppqqqonnnooonnm......opqqqppppppp
(PID.TID 0000.0001)     11 trqppnnpsvwvwvutssssrrsssrqqqppponm...noonm..oooonnnnnnnnopqqqppoppqponm.....nqtuuvuuutttt
(PID.TID 0000.0001)     10 utsssstvwxz+++zyxyyywuuvuttssrrrqpnm..ooonm..oonnmmnnnnnnmnoooppppppponn...ooprtuvwwwwvvvv
(PID.TID 0000.0001)      9 uttttuuvvwwvuvvvuuwwvuuuuuutsssrrrqpoooonn..ponnnnnnnnnoonnnooooooonnnnl..mmnpqsstuvvwvvwv
(PID.TID 0000.0001)      8 tuuvutttttsssssrrqqstuutttuutttttuuuttssqppqqpppqqrrrqqqqrqqqppqppppooon..nmnpqqqrstttuuut
(PID.TID 0000.0001)      7 ssttsrrrssssrrrrsrqqrrrrrrssssstuuvwwvvvvvvusssssttuvvvuuttsssssssrrrrrssrrqrrrqqqrrrrrssr
(PID.TID 0000.0001)      6 pppooppqqrrqpppqqrrpoooopppqqrsssttttstuwxxwvutuuvvvwxxwvuttsttttttuuuvvxxxxxwusrqpppppqqp
(PID.TID 0000.0001)      5 mmlmmmnnnonnnnmnnoonmmmmmmmnnopppppppqqstuuuuuuuuvvuutsssssssssstttttuuuutsstrqpooonnnonnn
(PID.TID 0000.0001)      4 kkkkklllllllllllmmmmmmllllllmmmmmmmmnnnnnoopqrrrrqqponnnnopqqqqqqqqqqqqppn...mmmmmmlllllll
(PID.TID 0000.0001)      3 lllllllllm.............................lmmmlmmnnmmlllllllmmnnnnnnnnnmmmmm...mlllllllllllll
(PID.TID 0000.0001)      2 ...........................................lllmmlllllllllllmmmmm...mll......mmlllllmmmm...
(PID.TID 0000.0001)      1 ..........................................................................................
(PID.TID 0000.0001) // =======================================================
(PID.TID 0000.0001) // END OF FIELD                                          =
(PID.TID 0000.0001) // =======================================================
(PID.TID 0000.0001) 
(PID.TID 0000.0001) // =======================================================
(PID.TID 0000.0001) // Field Current vVel   at iteration         90
(PID.TID 0000.0001) // CMIN =         -8.524502467502630E-02
(PID.TID 0000.0001) // CMAX =          1.358802915633256E-01
(PID.TID 0000.0001) // CINT =          8.189826527346365E-03
(PID.TID 0000.0001) // SYMBOLS (CMIN->CMAX): -abcdefghijklmnopqrstuvwxyz+
(PID.TID 0000.0001) //                  0.0: .
(PID.TID 0000.0001) // RANGE I (Lo:Hi:Step):(     1:    90:     1)
(PID.TID 0000.0001) // RANGE J (Lo:Hi:Step):(    40:     1:    -1)
(PID.TID 0000.0001) // RANGE K (Lo:Hi:Step):(   1:   1:   1)
(PID.TID 0000.0001) // =======================================================
(PID.TID 0000.0001) K =   1
(PID.TID 0000.0001)                I=10      I=20      I=30      I=40      I=50      I=60      I=70      I=80      I=90
(PID.TID 0000.0001) |--J--|123456789|123456789|123456789|123456789|123456789|123456789|123456789|123456789|123456789|
(PID.TID 0000.0001)     40 jknnl.kjjjkkkk...jj..................................................................jiiji
(PID.TID 0000.0001)     39 jklmlkjjjjjjk...........................................................jijk........gijjkj
(PID.TID 0000.0001)     38 kmm.......................................................................jij......jh.llkk
(PID.TID 0000.0001)     37 ln...................................................................jj...jjj...fkonk.lljj
(PID.TID 0000.0001)     36 kl.........................................lmml....................kjj....hhii.delommljkkj
(PID.TID 0000.0001)     35 ...................................jjkk..kllmlll...gglmm...................giihhklmllkmm..
(PID.TID 0000.0001)     34 ....................................kji.jkkjkjjj.ggghjklk...................hfhijkllkjkk..
(PID.TID 0000.0001)     33 ....................................lhgijjihhhgggfefgghhijj.................pfhiiiiihffjk.
(PID.TID 0000.0001)     32 ....................................kihhhihgffededdeffggghi................tpggggfffeefj..
(PID.TID 0000.0001)     31 ....................................mkhhhhgfffeefffgghhhhgh..............lmkigggggggggik..
(PID.TID 0000.0001)     30 ...................................noljjkkjiijjjiiijkkkkigg............nqmmkiihhiiiiiikl..
(PID.TID 0000.0001)     29 .................................nnnmkjklmkjjkllkkjkllkjihgg...........ooljiihiijiiijklk..
(PID.TID 0000.0001)     28 ...............................pomlkjjijkkihhijklllllkjjjihgh.........lljihhgghjkkkkjj....
(PID.TID 0000.0001)     27 ..............jj..............qpnkjjjkkllkjjjkklnnnnnmlllkjihi...klmn.mkihhhiijlmmmlkj....
(PID.TID 0000.0001)     26 ..............jkl...........hjoplkkllnoponmmnnoooonmnnmllkjiiijj....nmkjkkjkkklmmlkkih....
(PID.TID 0000.0001)     25 ..............lmlk...lmk...gfj.nhhkmnopponmmmmmnnnmkkkkjjjijkkkji....lllkhhhhhijjjhhhh....
(PID.TID 0000.0001)     24 ............nqstqnn.nool...lkl..gfjlmnooooooopooppomlmmmmnnonmmkjjjk.....mkklmoppoonmj....
(PID.TID 0000.0001)     23 ............txyxuqq.npqm...ll...fhortuvvvvwxxxwwxwwutuvvxxvvtrqonnnml.......stvxyyxuqk....
(PID.TID 0000.0001)     22 j...........sxxvrnmjjnqp......jfglswyz+zwutuvvuuuuutttttuttsrponlmmmjg........qtwyywtqnlkj
(PID.TID 0000.0001)     21 iik........mnppmkihggikkf......b.knrvwwtqnmmlllmmmmmllmmnnnnlkjijjkjig.........mpvsqomllkj
(PID.TID 0000.0001)     20 gjl.......lmnmjfeeefggfed......-......nmlllkjjkjihhiihghgeedddbcdeffgg...........snigfeeee
(PID.TID 0000.0001)     19 egj.......mnsqmjjiiijkiggkl...ghk.....nnmnooooonmkjklkjigeffdcbbcccdfi...........nmhedccde
(PID.TID 0000.0001)     18 hij.......m.supollkklmljjklkjhg.....klmlllnoooooonmmnnnnlkllkjihfeefhjj..........mpmljihhh
(PID.TID 0000.0001)     17 nml.......m.nqkihihiigiihghhhh.......jihhhjlkjjjjkkjkkkkkkkkkllljiijlml.........jkmmnnmlmn
(PID.TID 0000.0001)     16 lml......im.iigghffgeefggggfh.........hedfhihiihhhhhijjiijkkjkkkjijkmnmk........iiiijkkjkk
(PID.TID 0000.0001)     15 jjkj....jkm.hijjighkifgiiihfg.........hffghijkkjiijjjkjjjklkkllljjjjklllk......iillkkllllk
(PID.TID 0000.0001)     14 klmj....hhlkikllkijlkiiklkjhh.........hfhijijllkjjkkjkkjjjjjkllkkjkkjjklj.....egilmllllmml
(PID.TID 0000.0001)     13 klml....bfihghjjjiiiiiikllkkj.........gghijjijjjjiiiiiiihhhhijijkkkkkklm.....gdghiiiijjklk
(PID.TID 0000.0001)     12 mmllkgcdcgjjhiklllkkjjkmnmlljiiijl....hhiih.iijjjihhhiiiihhiihhjmmlkklml.....gghhiihijjklm
(PID.TID 0000.0001)     11 pooomkjjjloomlnpppoppopppqpomllkkll..ihjjjj.kkkjkkjjjjjlllklkjjmpponmmmk....kjmmlllllmmopq
(PID.TID 0000.0001)     10 rqqrqpnmpstsrqpqttqpqssssrrrqonnmmoo.lklkj..pnlklmmmmmlmoooommmprrqponmk..oqnorrpooonnprsr
(PID.TID 0000.0001)      9 ppqrrqnmortsrqontxqmoprrrqqqponmmlnqpmklll.qqnllllllmmmnnoponmmoqqpoonji.kpqqrtrpoppnnprsq
(PID.TID 0000.0001)      8 ooooonmmmopppomkowuonnopppoonnmmllmpoliijlrtpnmlmlkklllmmmmmlllmoonmmlhj.loqsttrononmmnoqq
(PID.TID 0000.0001)      7 ponlllmmmmnonmlkkotrpnmnnnmmmmmmllnpnkihikopponmnnmmllkklkklllllmmmlkkkknpoqttrponnmlmnnop
(PID.TID 0000.0001)      6 nmlkllmmmllllkkkklnonmlllkkkllllkkmnmlkjkllmmnooooppomkjjijlllllmmmllllnoppqpoonlmmlllmmmm
(PID.TID 0000.0001)      5 kjjjjjjkkjiiiiiijjkkkjjhhiiijjjiijjjkkkkkllkklnooooonlkjiijklllklmmlllmmmm..mklllllkkllkkk
(PID.TID 0000.0001)      4 gffgggfggh............................jiijjjjklmmmllkjjjjjkkkkjjjkkkkkjjj...lkkkkjjjjjiihh
(PID.TID 0000.0001)      3 ..........................................jjjjjjjjjiiiiiiiiihiii..jjii.....jklkjiijiiii...
(PID.TID 0000.0001)      2 ..........................................................................................
(PID.TID 0000.0001)      1 ..........................................................................................
(PID.TID 0000.0001) // =======================================================
(PID.TID 0000.0001) // END OF FIELD                                          =
(PID.TID 0000.0001) // =======================================================
(PID.TID 0000.0001) 
(PID.TID 0000.0001) // =======================================================
(PID.TID 0000.0001) // Field Current theta  at iteration         90
(PID.TID 0000.0001) // CMIN =         -1.933511376957922E+00
(PID.TID 0000.0001) // CMAX =          3.121225381869276E+01
(PID.TID 0000.0001) // CINT =          1.227620933172247E+00
(PID.TID 0000.0001) // SYMBOLS (CMIN->CMAX): -abcdefghijklmnopqrstuvwxyz+
(PID.TID 0000.0001) //                  0.0: .
(PID.TID 0000.0001) // RANGE I (Lo:Hi:Step):(     1:    90:     1)
(PID.TID 0000.0001) // RANGE J (Lo:Hi:Step):(    40:     1:    -1)
(PID.TID 0000.0001) // RANGE K (Lo:Hi:Step):(   1:   1:   1)
(PID.TID 0000.0001) // =======================================================
(PID.TID 0000.0001) K =   1
(PID.TID 0000.0001)                I=10      I=20      I=30      I=40      I=50      I=60      I=70      I=80      I=90
(PID.TID 0000.0001) |--J--|123456789|123456789|123456789|123456789|123456789|123456789|123456789|123456789|123456789|
(PID.TID 0000.0001)     40 -bbccb--------abcddbbbbbbbbbbbbbbbbbbbbbbbbbbbbbbbbbbbbbbbbbbbbbbbbbbbbbbbbbbbbbbbbbbaa---
(PID.TID 0000.0001)     39 bbccccbbaa----bbbddbbbbbbbbbbbbbbbbbbbbbbbbbbbbbbbbbbbbbbbbbbbbbbbbbbbbb----bbbbbbbbaaaaaa
(PID.TID 0000.0001)     38 deeeeecbcbaa-bbbbbbbbbbbbbbbbbbbbbbbbbbbbbbbbbbbbbbbbbbbbbbbbbbbbbbbbbbb-----bbbbbba--abcc
(PID.TID 0000.0001)     37 ffgbbbbbbbbbbbbbbbbbbbbbbbbbbbbbbbbbbbbbbbbbbbbbbbbbbbbbbbbbbbbbbbbbbbbbbb--abbbbbeeebcdde
(PID.TID 0000.0001)     36 ggbbbbbbbbbbbbbbbbbbbbbbbbbbbbbbbbbbbbbbbbbba--bbbbbbbbbbbbbbbbbbbbcccbbaaaaadbceffghhhggg
(PID.TID 0000.0001)     35 ffbbbbbbbbbbbbbbbbbbbbbbbbbbbbbbbbb----bbabcccb-bbbddeefbbbbbbbbbbbbbbbbbbbcddddeffhhiiihg
(PID.TID 0000.0001)     34 bbbbbbbbbbbbbbbbbbbbbbbbbbbbbbbbbbb----bacccccccbccedefffbbbbbbbbbbbbbbbbbbbabdeefghiijibb
(PID.TID 0000.0001)     33 bbbbbbbbbbbbbbbbbbbbbbbbbbbbbbbbbbbb--abbcccccdddeeeefffgghbbbbbbbbbbbbbbbbbaabfhijjjjjjjb
(PID.TID 0000.0001)     32 bbbbbbbbbbbbbbbbbbbbbbbbbbbbbbbbbbbb-abbccddddeefffgggghhhibbbbbbbbbbbbbbbbedb-ikklllkkkjb
(PID.TID 0000.0001)     31 bbbbbbbbbbbbbbbbbbbbbbbbbbbbbbbbbbbbdeefgggghihhhhhiijjjjjjbbbbbbbbbbbbbbhilkgjlmmmmmllmbb
(PID.TID 0000.0001)     30 bbbbbbbbbbbbbbbbbbbbbbbbbbbbbbbbbbbkkjjjjkkkkkkkkkkkllmmmllbbbbbbbbbbbbmmmoooooooooonnnnbb
(PID.TID 0000.0001)     29 bbbbbbbbbbbbbbbbbbbbbbbbbbbbbbbbbnnnnnmmmnnmnnnnnnnnnooonmmmbbbbbbbbbbbopqqppppppppooooobb
(PID.TID 0000.0001)     28 bbbbbbbbbbbbbbbbbbbbbbbbbbbbbbbmopppppoooppppppppppppqqpponnnbbbbbbbbbqrrrqqrqqqqqppppppbb
(PID.TID 0000.0001)     27 bbbbbbbbbbbbbbuubbbbbbbbbbbbbbqqrrrrrrrrrssrrsrrsssrrrrqqqpoopbbbrrrsbstttsstssssrrrqqbbbb
(PID.TID 0000.0001)     26 bbbbbbbbbbbbbbuttbbbbbbbbbbbsstttttuuuuuuuuuttttttttsssrrrqppqsubstuvuuuuuuuuttttsrrqqbbbb
(PID.TID 0000.0001)     25 bbbbbbbbbbbbbbuuvvbbbwvwbbbuuvvvvvvwwwvvvvvvuuuuuuuutttsssrrsstvwbbbvvvvvuvuuuuttsrrqqbbbb
(PID.TID 0000.0001)     24 bbbbbbbbbbbbwvvwwxybwwxxbbbwwwbwwwwwwwwwwwvvvvvvvvuuvvvvvvvvvvvwwvvwbwvvvuuuuuuuttttttbbbb
(PID.TID 0000.0001)     23 bbbbbbbbbbbbwwxxxyzbwxxxbbbxwwbbwxxxxxxxxxwwwwwwwwwwwwwwwwwwwwwwwwwxwbbbbwvvvvvvvvvvwwbbbb
(PID.TID 0000.0001)     22 vbbbbbbbbbbbwwwxxyyxxxyybbbxxbzyxxxyyyyyyyxxxxxxxxxxxxxwwwwwwwwwwwwvvvbbbbbbxwwwwxxxxyyyxw
(PID.TID 0000.0001)     21 vvvbbbbbbbbxxxxxxxxxyyzz+bbbbbzyzzzzzzzzzzyyyyyyyyyyyyxxxxxxxxxxxxwvvvbbbbbbbbxxxxyyyyzyxw
(PID.TID 0000.0001)     20 vvvbbbbbbbyyyyyyyyyyzzzz+bbbbbbzbzzzzz+zz++zzzzzzzzyyyyxxxxxxxxxwxxwwvbbbbbbbbbyyyxxxxxxww
(PID.TID 0000.0001)     19 vvwbbbbbbbzzzyyyyyyyyyyyzzybbbzzzbbbbbz+zz++zzzzzzzzyyyxxxxxwwwvvwvvvvbbbbbbbbbbbxxwwwwvvv
(PID.TID 0000.0001)     18 vuubbbbbbbzzyxxyyyyyyyyyzyzzzz+zzbbb++zzzz+zzzzzzzzzyyyyxxxxwwwvvvvuuutbbbbbbbbbbyxxwwvvwv
(PID.TID 0000.0001)     17 uutbbbbbbbzbyxxxxxxxxxxxyyyyyzzbbbbbyyyyzzzzzzzzyyyyyxxxxxxxwwwvuvvuttvbbbbbbbbbxxyxxvuvvv
(PID.TID 0000.0001)     16 ttsbbbbbbyzbxxxxwwwwwwwwwwxxyybbbbbbbxxxyyyyyyyyyyyyyyxxxxxxxwwvvvvuutstbbbbbbbbxyyxxwvvvu
(PID.TID 0000.0001)     15 tsrrbbbbwxxbwwwwwvvvvvvvuuvvwbbbbbbbbbvwwxxxxxxxxxxxxxxxxxyxxwvvvvuutsssrbbbbbbxxxxxxwwvuu
(PID.TID 0000.0001)     14 tsqqbbbbwxwvvwwvvwvvutuuttttubbbbbbbbbvvvvwwwwwwwwwwxxwwxxxxwwvvvvuutsssrbbbbbvwxxwxxwwwvu
(PID.TID 0000.0001)     13 utsqbbbbvwvvvvuuuvvuuuutsssssbbbbbbbbbuuuvvvvvvvvvuuvvvvvwwwwwvvuuuutssspbbbbuvwwwvwwwwvvu
(PID.TID 0000.0001)     12 sssrssqsuuuttutssssssttrrrrrqqqrrqbbbbsttttttttsssssttttttuuutttssstssrrbbbbbtvvvutuuuttst
(PID.TID 0000.0001)     11 qpppqqrrrsrqqrrqqppopqqpppppppqqqqqbbssssssbrrrqqrrrrrrrrrrrqqqrqqqrrrqpbbbboqssssrrsrrqqq
(PID.TID 0000.0001)     10 mmlllmnoppoooponmmmnmmmmlmlllmnooooobqrqqqqbppqqqqqppppppppooopoonnoopoobbnppppoooonoppoon
(PID.TID 0000.0001)      9 jjjiiijkkjjkkkkjjiijjjjiiiijiijkkmnmmnooopbnnnnoooooonooonmmmmmmmllllmmmbmmnnmlllllkkllkjj
(PID.TID 0000.0001)      8 fgggggghhggghiiihgghhhhggghhhhiijjjjjjkllmmllllllllllllllkkkjjjkkjjjjklkbkkkkjjjiiihhhhggf
(PID.TID 0000.0001)      7 eeeeeefffgfffggggfffffeeeefgggggghhgghiijjjjjjjkkjjiiiiihiiiiihhiiiiiiijiiiiihhggfffffeeee
(PID.TID 0000.0001)      6 ccddeeeeeeeeeeeeeeeeeeeeeeeeddeeefeefggghhhhhhhhihhgffggfggfffffgggggghhhhhhggffeeeedddddd
(PID.TID 0000.0001)      5 ddddddddddeeeeeeeeddddddddddddeeeeeeeeeeffffffeeefedddeeeeeeeddeeeeefffeeeedeeddddddcccccc
(PID.TID 0000.0001)      4 cdddcccccccccccbbccccccbbbbbcccccbbbbcccccdddcccccccccccccccccdddcccdddddcbbbbabcccccccccc
(PID.TID 0000.0001)      3 cccbbbbaaabbbbbbbbbbbbbbbbbbbbbbbbbbbbbbaaaabbbbbbbbbbbbbbaabbbbbbaabbbbbbbbaaaaabbccbbbbb
(PID.TID 0000.0001)      2 bbbbbbbbbbbbbbbbbbbbbbbbbbbbbbbbbbbbbbbbbbaaabbbbbbbbaaaaaaaaaaabbaaaabbbbbaaaaaaabbbbbbbb
(PID.TID 0000.0001)      1 bbbbbbbbbbbbbbbbbbbbbbbbbbbbbbbbbbbbbbbbbbbbbbbbbbbbbbbbbbbbbbbbbbbbbbbbbbbbbbbbbbbbbbbbbb
(PID.TID 0000.0001) // =======================================================
(PID.TID 0000.0001) // END OF FIELD                                          =
(PID.TID 0000.0001) // =======================================================
(PID.TID 0000.0001) 
(PID.TID 0000.0001) // =======================================================
(PID.TID 0000.0001) // Field Current etaN   at iteration         90
(PID.TID 0000.0001) // CMIN =         -1.919130616339144E+00
(PID.TID 0000.0001) // CMAX =          8.955498025008815E-01
(PID.TID 0000.0001) // CINT =          1.042474229200009E-01
(PID.TID 0000.0001) // SYMBOLS (CMIN->CMAX): -abcdefghijklmnopqrstuvwxyz+
(PID.TID 0000.0001) //                  0.0: .
(PID.TID 0000.0001) // RANGE I (Lo:Hi:Step):(    -1:    92:     1)
(PID.TID 0000.0001) // RANGE J (Lo:Hi:Step):(    42:    -1:    -1)
(PID.TID 0000.0001) // RANGE K (Lo:Hi:Step):(   1:   1:   1)
(PID.TID 0000.0001) // =======================================================
(PID.TID 0000.0001) K =   1
(PID.TID 0000.0001)                I=8       I=18      I=28      I=38      I=48      I=58      I=68      I=78      I=88
(PID.TID 0000.0001) |--J--|101234567|901234567|901234567|901234567|901234567|901234567|901234567|901234567|901234567|9012
(PID.TID 0000.0001)     42 ............................................aaabbbbbcccccccccccccd..eddd.....abbbbbbbbbbb.....
(PID.TID 0000.0001)     41 ..............................................................................................
(PID.TID 0000.0001)     40 llkkkll.kkkkkkkkjjkkj..................................................................lllllkk
(PID.TID 0000.0001)     39 lkkkkklllkkkkkkk...kk.....................................................gggg........mmlllkkk
(PID.TID 0000.0001)     38 kllllllllllllll...........................................................hhhhh......mlkkkklll
(PID.TID 0000.0001)     37 lllln..................................................................jj...iih...kkklk.klllll
(PID.TID 0000.0001)     36 lmmo.........................................pppo....................kkkkjihhhih.lihjklmlllmmo
(PID.TID 0000.0001)     35 nnnn.................................qqqp..ooooppp...trrrs...........llk....jhhhhhhijkklmmnnnn
(PID.TID 0000.0001)     34 .....................................qppp.oooooppp.qpqqqrst..................jjihhhijklmnp....
(PID.TID 0000.0001)     33 o.....................................qqppoopoopppqqqqqqrrstt.................lkjjjklmnnnno...
(PID.TID 0000.0001)     32 p.....................................rqpppppppqqqqqqrrrsssst................iomlmmnnoooonp...
(PID.TID 0000.0001)     31 ......................................pqqppqqqrrrrrrssssttttt..............noooonooooooooo....
(PID.TID 0000.0001)     30 .....................................qrssrrsssssstttttttuuuut............loopqrqrqqqqpppop....
(PID.TID 0000.0001)     29 ...................................sttvvvuuvvuuuuuuuuuuuuuuuts...........nqrssssrrrrqqpppp....
(PID.TID 0000.0001)     28 .................................tvvwxxxxxwwwwwwwvvvvvvvvvvuutt.........rrssssssrrrrqqpppp....
(PID.TID 0000.0001)     27 ................tt..............wxxyyyyyyyxyxxxxwwwwwwwvvvvuuutt...tttt.sttttsssrrrqqqpp......
(PID.TID 0000.0001)     26 ................sss...........zyyzyyyzzzzzzzyyyxxxwxwwwwvvvuuutttu.tttuuuuutttssrrrqqqpp......
(PID.TID 0000.0001)     25 ................tttt...vvv...zyyxzzyyyzzzzzzyyyxxxxwwwwwwvvvuuuuuuv...tuuuuutttssrrrqqpp......
(PID.TID 0000.0001)     24 ..............ttttuuu.vvvv...zyy.+zyyyyyyyyyyyyxxxxwwwwwwvvvvvvvvvvuuu.utttttttssrrrqqqq......
(PID.TID 0000.0001)     23 ..............tuuuuvv.vvvv...zzy..zyyyyyyyyyyxxxxxxwwwwwwvvvvvvvvvuuuuu....tttssssrrrrrs......
(PID.TID 0000.0001)     22 srr...........uuuuuuvvvvvv...zz.zyyxxxxxxxxxxxxxxxxxxxwwwwwwwvvvvuuuuuuu......sssssssssssssrr.
(PID.TID 0000.0001)     21 srrrr........vvuuuttuuuuvvw.....zyyyyyyxxxxxxxxwwwwwxxwwwwwvvvvvvuuuuuuu........sssssssssssrrr
(PID.TID 0000.0001)     20 rrrrr.......wvvuutttuuuuuvv......y.zyyyyxxxxxxxxwwwwxwwwwvvvvuuuuuuuuuuu.........ttssssssrrrrr
(PID.TID 0000.0001)     19 qqqrr.......wvvutttuuuuuuuvvv...xxx.....yxxyyxyxxxxxxxwwwvvvvuuuttuutttt...........tssrrrqqqqr
(PID.TID 0000.0001)     18 qqqqq.......wwwuuuuuvvvvvvvvvvvwxxy...zzyyyyyyyyyyyxxxxwwwvvvvuuuuttttttt..........tssrrqqqqqq
(PID.TID 0000.0001)     17 rqqqq.......x.ywvvvvvvwvvvvvvvvww.....yyxxxxxyyyyyyxxxxwwwwwwvvvvuuuuuttt.........uutssrrrrqqq
(PID.TID 0000.0001)     16 rrqqq......yx.xwwwwwwvwvvvvvvvvv.......xxxxxxxyxxxyxxxxxxxwwwwwwvvvuuuuttt........uutttssrrrqq
(PID.TID 0000.0001)     15 srrqpp....www.wwwwwwwvvvvvuuttv.........wwwxxxxxxxxxxxxxxxxxxxxwwvvvvuuttss......tuuuuuttssrrq
(PID.TID 0000.0001)     14 tssrqo....wwvuvwwwwwwvuuuuutsst.........vwwwwwxwwwwxxxxxxxxyxxxxwwvvvvuutss.....ttuuuuuuuutssr
(PID.TID 0000.0001)     13 utssrp....vxwvvvvvvvvuuuvuutssr.........uvvvvvvvvvvvvvvwwwxxxxxxwwwvvvuutss....rttuuuuvvvuutss
(PID.TID 0000.0001)     12 ttssrqqnqrvwwvvvvuuuuuuuuuttssrrssss....tuuuutuuuuuuuuuvvvvvwwwwwwvvuuutts.....rsttttuuuuuttss
(PID.TID 0000.0001)     11 ssrrqqqqstuvvuuuuuuuuttttttsssrrsssss..sttttt.sttttttuuuuuuuvvvvvwvuutttsr....oqrrrsssttttssrr
(PID.TID 0000.0001)     10 qppppooppqqrqppqqrrqqrrrrrrrqqqqrrrsss.rstttu.ssrsttttuuuvuuuuuuvvutssssss..tppqpoooppqqrrqppp
(PID.TID 0000.0001)      9 mlmmmmlllmnnlkkklllkkmnnnnnnoooopqqrssrrrsss.tsqrsttttutuuuutttttttsrrrrrq.qqpoonllllllmnmmlmm
(PID.TID 0000.0001)      8 hghhhhhghiiiiiihijlifhijjjjjkkklmmnoppppqrsttqqqqqrrsstssssssrrrssrrqqqqru.rqonljihhhhhiiihghh
(PID.TID 0000.0001)      7 edddccdeefffffeffghigeeeefffgghhiijjkjjjlmopponnnoooooooppooooooooooooopprrqpomkigfeeeeeeeeddd
(PID.TID 0000.0001)      6 bbaaabbcccdddddddeeeedddddddeeefffffffffghjkklkkkkkkjjiiijjjkkklllllllllmmmlkjhgedddccccccbbaa
(PID.TID 0000.0001)      5 aaaaabbbcccbcccccdddddcccbbcccccccccddddddeeffghhggffeddddefghhhhhhhhhhhhggedcabbbbbbbbbbaaaaa
(PID.TID 0000.0001)      4 aaaabbbbbccccdddddccccccccdccccccccbbbbbbbbccccddccbbbbbccdddeeeeeeeeeeeedde..-aaaaaaaaaaaaaaa
(PID.TID 0000.0001)      3 bbcccccccccc............................bbbbbbbbbbbbbbbbbccccccccdddddddded..baaaaaabbbbbbbbcc
(PID.TID 0000.0001)      2 ............................................aaabbbbbcccccccccccccd..eddd.....abbbbbbbbbbb.....
(PID.TID 0000.0001)      1 ..............................................................................................
(PID.TID 0000.0001)      0 llkkkll.kkkkkkkkjjkkj..................................................................lllllkk
(PID.TID 0000.0001)     -1 lkkkkklllkkkkkkk...kk.....................................................gggg........mmlllkkk
(PID.TID 0000.0001) // =======================================================
(PID.TID 0000.0001) // END OF FIELD                                          =
(PID.TID 0000.0001) // =======================================================
(PID.TID 0000.0001) 
(PID.TID 0000.0001)  MDS_WRITE_FIELD: it,rec,kS,kL,kH=      90     1  15   1  15 file=U.0000000090
(PID.TID 0000.0001)  MDS_WRITE_FIELD: it,rec,kS,kL,kH=      90     1  15   1  15 file=V.0000000090
(PID.TID 0000.0001)  MDS_WRITE_FIELD: it,rec,kS,kL,kH=      90     1  15   1  15 file=T.0000000090
(PID.TID 0000.0001)  MDS_WRITE_FIELD: it,rec,kS,kL,kH=      90     1  15   1  15 file=S.0000000090
(PID.TID 0000.0001)  MDS_WRITE_FIELD: it,rec,kS,kL,kH=      90     1   1   1   1 file=Eta.0000000090
(PID.TID 0000.0001)  MDS_WRITE_FIELD: it,rec,kS,kL,kH=      90     1  15   1  15 file=W.0000000090
(PID.TID 0000.0001)  MDS_WRITE_FIELD: it,rec,kS,kL,kH=      90     1  15   1  15 file=PH.0000000090
(PID.TID 0000.0001)  MDS_WRITE_FIELD: it,rec,kS,kL,kH=      90     1   1   1   1 file=PHL.0000000090
(PID.TID 0000.0001)  MDS_WRITE_FIELD: it,rec,kS,kL,kH=      90     1   1   1   1 file=ETAtave.0000000090
(PID.TID 0000.0001)  MDS_WRITE_FIELD: it,rec,kS,kL,kH=      90     1  15   1  15 file=Ttave.0000000090
(PID.TID 0000.0001)  MDS_WRITE_FIELD: it,rec,kS,kL,kH=      90     1  15   1  15 file=Stave.0000000090
(PID.TID 0000.0001)  MDS_WRITE_FIELD: it,rec,kS,kL,kH=      90     1  15   1  15 file=uVeltave.0000000090
(PID.TID 0000.0001)  MDS_WRITE_FIELD: it,rec,kS,kL,kH=      90     1  15   1  15 file=vVeltave.0000000090
(PID.TID 0000.0001)  MDS_WRITE_FIELD: it,rec,kS,kL,kH=      90     1  15   1  15 file=wVeltave.0000000090
(PID.TID 0000.0001)  MDS_WRITE_FIELD: it,rec,kS,kL,kH=      90     1   1   1   1 file=Eta2tave.0000000090
(PID.TID 0000.0001)  MDS_WRITE_FIELD: it,rec,kS,kL,kH=      90     1  15   1  15 file=UTtave.0000000090
(PID.TID 0000.0001)  MDS_WRITE_FIELD: it,rec,kS,kL,kH=      90     1  15   1  15 file=VTtave.0000000090
(PID.TID 0000.0001)  MDS_WRITE_FIELD: it,rec,kS,kL,kH=      90     1  15   1  15 file=WTtave.0000000090
(PID.TID 0000.0001)  MDS_WRITE_FIELD: it,rec,kS,kL,kH=      90     1  15   1  15 file=UStave.0000000090
(PID.TID 0000.0001)  MDS_WRITE_FIELD: it,rec,kS,kL,kH=      90     1  15   1  15 file=VStave.0000000090
(PID.TID 0000.0001)  MDS_WRITE_FIELD: it,rec,kS,kL,kH=      90     1  15   1  15 file=WStave.0000000090
(PID.TID 0000.0001)  MDS_WRITE_FIELD: it,rec,kS,kL,kH=      90     1  15   1  15 file=TTtave.0000000090
(PID.TID 0000.0001)  MDS_WRITE_FIELD: it,rec,kS,kL,kH=      90     1  15   1  15 file=UUtave.0000000090
(PID.TID 0000.0001)  MDS_WRITE_FIELD: it,rec,kS,kL,kH=      90     1  15   1  15 file=VVtave.0000000090
(PID.TID 0000.0001)  MDS_WRITE_FIELD: it,rec,kS,kL,kH=      90     1  15   1  15 file=UVtave.0000000090
(PID.TID 0000.0001)  MDS_WRITE_FIELD: it,rec,kS,kL,kH=      90     1  15   1  15 file=Tdiftave.0000000090
(PID.TID 0000.0001)  MDS_WRITE_FIELD: it,rec,kS,kL,kH=      90     1  15   1  15 file=PhHytave.0000000090
(PID.TID 0000.0001)  MDS_WRITE_FIELD: it,rec,kS,kL,kH=      90     1   1   1   1 file=PHLtave.0000000090
(PID.TID 0000.0001)  MDS_WRITE_FIELD: it,rec,kS,kL,kH=      90     1   1   1   1 file=uFluxtave.0000000090
(PID.TID 0000.0001)  MDS_WRITE_FIELD: it,rec,kS,kL,kH=      90     1   1   1   1 file=vFluxtave.0000000090
(PID.TID 0000.0001)  MDS_WRITE_FIELD: it,rec,kS,kL,kH=      90     1   1   1   1 file=tFluxtave.0000000090
(PID.TID 0000.0001)  MDS_WRITE_FIELD: it,rec,kS,kL,kH=      90     1   1   1   1 file=sFluxtave.0000000090
(PID.TID 0000.0001)  MDS_WRITE_FIELD: it,rec,kS,kL,kH=      90     1   1   1   1 file=PHL2tave.0000000090
(PID.TID 0000.0001)  MDS_WRITE_FIELD: it,rec,kS,kL,kH=      90     1  15   1  15 file=Convtave.0000000090
(PID.TID 0000.0001) // Time-average data written, t-step        90
(PID.TID 0000.0001) 
(PID.TID 0000.0001)  MDS_WRITE_FIELD: it,rec,kS,kL,kH=      90     1  15   1  15 file=GM_Kwx-T.0000000090
(PID.TID 0000.0001)  MDS_WRITE_FIELD: it,rec,kS,kL,kH=      90     1  15   1  15 file=GM_Kwy-T.0000000090
(PID.TID 0000.0001)  MDS_WRITE_FIELD: it,rec,kS,kL,kH=      90     1  15   1  15 file=GM_Kwz-T.0000000090
(PID.TID 0000.0001)  MDS_WRITE_FIELD: it,rec,kS,kL,kH=      90     1  15   1  15 file=pickup_cd.0000000090
(PID.TID 0000.0001)  MDS_WRITE_FIELD: it,rec,kS,kL,kH=      90     2  15   1  15 file=pickup_cd.0000000090
(PID.TID 0000.0001)  MDS_WRITE_FIELD: it,rec,kS,kL,kH=      90     3  15   1  15 file=pickup_cd.0000000090
(PID.TID 0000.0001)  MDS_WRITE_FIELD: it,rec,kS,kL,kH=      90     4  15   1  15 file=pickup_cd.0000000090
(PID.TID 0000.0001)  MDS_WRITE_FIELD: it,rec,kS,kL,kH=      90    61   1   1   1 file=pickup_cd.0000000090
(PID.TID 0000.0001)  MDS_WRITE_FIELD: it,rec,kS,kL,kH=      90    -1  15   1  15 file=pickup.0000000090
(PID.TID 0000.0001)  MDS_WRITE_FIELD: it,rec,kS,kL,kH=      90    -2  15   1  15 file=pickup.0000000090
(PID.TID 0000.0001)  MDS_WRITE_FIELD: it,rec,kS,kL,kH=      90    -3  15   1  15 file=pickup.0000000090
(PID.TID 0000.0001)  MDS_WRITE_FIELD: it,rec,kS,kL,kH=      90    -4  15   1  15 file=pickup.0000000090
(PID.TID 0000.0001)  MDS_WRITE_FIELD: it,rec,kS,kL,kH=      90    -5  15   1  15 file=pickup.0000000090
(PID.TID 0000.0001)  MDS_WRITE_FIELD: it,rec,kS,kL,kH=      90    -6  15   1  15 file=pickup.0000000090
(PID.TID 0000.0001)  MDS_WRITE_FIELD: it,rec,kS,kL,kH=      90    -7  15   1  15 file=pickup.0000000090
(PID.TID 0000.0001)  MDS_WRITE_FIELD: it,rec,kS,kL,kH=      90    -8  15   1  15 file=pickup.0000000090
(PID.TID 0000.0001)  MDS_WRITE_FIELD: it,rec,kS,kL,kH=      90  -121   1   1   1 file=pickup.0000000090
(PID.TID 0000.0001)  MDS_WRITE_FIELD: it,rec,kS,kL,kH=      90  -122   1   1   1 file=pickup.0000000090
(PID.TID 0000.0001)  MDS_WRITE_FIELD: it,rec,kS,kL,kH=      90  -123   1   1   1 file=pickup.0000000090
(PID.TID 0000.0001) %CHECKPOINT        90 0000000090
 EXTERNAL_FIELDS_LOAD,        90 : iP,iLd,i0,i1=    3    4    3    4 ; Wght=  0.5000000000  0.5000000000
 EXTERNAL_FIELDS_LOAD: (fu0,1),fu,fv= -2.7199E-02 -3.7252E-02 -3.2225E-02 -1.7897E-02
 EXTERNAL_FIELDS_LOAD: SST,SSS,Q,E-P= -7.4284E-02  3.4574E+01  1.5975E+02  8.4249E-06
DEBUG_STATS_RL:          Uvel (THERMODYNAMICS)  min= -1.36016491386785E-01
DEBUG_STATS_RL:          Uvel (THERMODYNAMICS)  max=  1.48122186401413E-01
DEBUG_STATS_RL:          Uvel (THERMODYNAMICS) mean=  5.98557782540746E-03
DEBUG_STATS_RL:          Uvel (THERMODYNAMICS) S.D.=  2.20949443101299E-02
DEBUG_STATS_RL:          Vvel (THERMODYNAMICS)  min= -8.52450246750263E-02
DEBUG_STATS_RL:          Vvel (THERMODYNAMICS)  max=  1.35880291563326E-01
DEBUG_STATS_RL:          Vvel (THERMODYNAMICS) mean=  9.51682187371828E-04
DEBUG_STATS_RL:          Vvel (THERMODYNAMICS) S.D.=  1.30151835147796E-02
DEBUG_STATS_RL:          Wvel (THERMODYNAMICS)  min= -5.69456138832955E-05
DEBUG_STATS_RL:          Wvel (THERMODYNAMICS)  max=  1.43847467849619E-04
DEBUG_STATS_RL:          Wvel (THERMODYNAMICS) mean= -2.71815710600435E-08
DEBUG_STATS_RL:          Wvel (THERMODYNAMICS) S.D.=  8.57054450879819E-06
DEBUG_STATS_RL:         Theta (THERMODYNAMICS)  min= -1.93231523133296E+00
DEBUG_STATS_RL:         Theta (THERMODYNAMICS)  max=  3.12270915029172E+01
DEBUG_STATS_RL:         Theta (THERMODYNAMICS) mean=  3.23033549663570E+00
DEBUG_STATS_RL:         Theta (THERMODYNAMICS) S.D.=  5.88900095821248E+00
DEBUG_STATS_RL:          Salt (THERMODYNAMICS)  min=  9.99999999999996E-03
DEBUG_STATS_RL:          Salt (THERMODYNAMICS)  max=  3.74764129395734E+01
DEBUG_STATS_RL:          Salt (THERMODYNAMICS) mean=  1.88547451866411E+01
DEBUG_STATS_RL:          Salt (THERMODYNAMICS) S.D.=  1.73003043767367E+01
DEBUG_STATS_RL:         GtNm1 (THERMODYNAMICS)  min= -3.23349960597808E-06
DEBUG_STATS_RL:         GtNm1 (THERMODYNAMICS)  max=  2.04490550207094E-06
DEBUG_STATS_RL:         GtNm1 (THERMODYNAMICS) mean= -1.67864214233575E-09
DEBUG_STATS_RL:         GtNm1 (THERMODYNAMICS) S.D.=  1.35816202930316E-07
DEBUG_STATS_RL:         GsNm1 (THERMODYNAMICS)  min= -3.69074653725208E-07
DEBUG_STATS_RL:         GsNm1 (THERMODYNAMICS)  max=  2.60184400540665E-07
DEBUG_STATS_RL:         GsNm1 (THERMODYNAMICS) mean= -2.21608787638569E-10
DEBUG_STATS_RL:         GsNm1 (THERMODYNAMICS) S.D.=  1.36412793854812E-08
DEBUG_STATS_RL:                EtaN (DYNAMICS)  min= -1.91913061633914E+00
DEBUG_STATS_RL:                EtaN (DYNAMICS)  max=  8.95549802500881E-01
DEBUG_STATS_RL:                EtaN (DYNAMICS) mean= -1.91214467815528E-01
DEBUG_STATS_RL:                EtaN (DYNAMICS) S.D.=  7.28335078268331E-01
DEBUG_STATS_RL:                Uvel (DYNAMICS)  min= -1.36016491386785E-01
DEBUG_STATS_RL:                Uvel (DYNAMICS)  max=  1.48122186401413E-01
DEBUG_STATS_RL:                Uvel (DYNAMICS) mean=  5.98557782540746E-03
DEBUG_STATS_RL:                Uvel (DYNAMICS) S.D.=  2.20949443101299E-02
DEBUG_STATS_RL:                Vvel (DYNAMICS)  min= -8.52450246750263E-02
DEBUG_STATS_RL:                Vvel (DYNAMICS)  max=  1.35880291563326E-01
DEBUG_STATS_RL:                Vvel (DYNAMICS) mean=  9.51682187371828E-04
DEBUG_STATS_RL:                Vvel (DYNAMICS) S.D.=  1.30151835147796E-02
DEBUG_STATS_RL:                Wvel (DYNAMICS)  min= -5.69456138832955E-05
DEBUG_STATS_RL:                Wvel (DYNAMICS)  max=  1.43847467849619E-04
DEBUG_STATS_RL:                Wvel (DYNAMICS) mean= -2.71815710600435E-08
DEBUG_STATS_RL:                Wvel (DYNAMICS) S.D.=  8.57054450879819E-06
DEBUG_STATS_RL:               Theta (DYNAMICS)  min= -1.93231523133296E+00
DEBUG_STATS_RL:               Theta (DYNAMICS)  max=  3.12270915029172E+01
DEBUG_STATS_RL:               Theta (DYNAMICS) mean=  3.23033549663570E+00
DEBUG_STATS_RL:               Theta (DYNAMICS) S.D.=  5.88900095821248E+00
DEBUG_STATS_RL:                Salt (DYNAMICS)  min=  9.99999999999996E-03
DEBUG_STATS_RL:                Salt (DYNAMICS)  max=  3.74764129395734E+01
DEBUG_STATS_RL:                Salt (DYNAMICS) mean=  1.88547451866411E+01
DEBUG_STATS_RL:                Salt (DYNAMICS) S.D.=  1.73003043767367E+01
DEBUG_STATS_RL:                  Gu (DYNAMICS)  min= -1.35036038261385E-01
DEBUG_STATS_RL:                  Gu (DYNAMICS)  max=  1.43416584299423E-01
DEBUG_STATS_RL:                  Gu (DYNAMICS) mean=  5.93319949704810E-03
DEBUG_STATS_RL:                  Gu (DYNAMICS) S.D.=  2.24750727013250E-02
DEBUG_STATS_RL:                  Gv (DYNAMICS)  min= -8.30522997670972E-02
DEBUG_STATS_RL:                  Gv (DYNAMICS)  max=  1.35965248558499E-01
DEBUG_STATS_RL:                  Gv (DYNAMICS) mean=  3.51647282912625E-03
DEBUG_STATS_RL:                  Gv (DYNAMICS) S.D.=  1.45849692656724E-02
DEBUG_STATS_RL:               GuNm1 (DYNAMICS)  min= -9.76117107376323E-06
DEBUG_STATS_RL:               GuNm1 (DYNAMICS)  max=  9.83275027364390E-06
DEBUG_STATS_RL:               GuNm1 (DYNAMICS) mean=  1.41945717521691E-08
DEBUG_STATS_RL:               GuNm1 (DYNAMICS) S.D.=  1.22643607510737E-06
DEBUG_STATS_RL:               GvNm1 (DYNAMICS)  min= -9.29594610438061E-06
DEBUG_STATS_RL:               GvNm1 (DYNAMICS)  max=  1.51764182752123E-05
DEBUG_STATS_RL:               GvNm1 (DYNAMICS) mean=  7.39200664042729E-07
DEBUG_STATS_RL:               GvNm1 (DYNAMICS) S.D.=  2.60510356413007E-06
DEBUG_STATS_RL:               GtNm1 (DYNAMICS)  min= -3.23349960597808E-06
DEBUG_STATS_RL:               GtNm1 (DYNAMICS)  max=  2.04490550207094E-06
DEBUG_STATS_RL:               GtNm1 (DYNAMICS) mean= -1.67864214233575E-09
DEBUG_STATS_RL:               GtNm1 (DYNAMICS) S.D.=  1.35816202930316E-07
DEBUG_STATS_RL:               GsNm1 (DYNAMICS)  min= -3.69074653725208E-07
DEBUG_STATS_RL:               GsNm1 (DYNAMICS)  max=  2.60184400540665E-07
DEBUG_STATS_RL:               GsNm1 (DYNAMICS) mean= -2.21608787638569E-10
DEBUG_STATS_RL:               GsNm1 (DYNAMICS) S.D.=  1.36412793854812E-08
DEBUG_STATS_RL:    cg2d_b (SOLVE_FOR_PRESSURE)  min= -2.88157669526708E+04
DEBUG_STATS_RL:    cg2d_b (SOLVE_FOR_PRESSURE)  max=  3.06956478393343E+04
DEBUG_STATS_RL:    cg2d_b (SOLVE_FOR_PRESSURE) mean=  5.55116176968339E+00
DEBUG_STATS_RL:    cg2d_b (SOLVE_FOR_PRESSURE) S.D.=  4.00179009846777E+03
 cg2d: Sum(rhs),rhsMax =   4.18656728278966E-01  2.01617233540424E+00
(PID.TID 0000.0001)  cg2d: iter=     1 ; resid.=  6.30600796779245E-02
(PID.TID 0000.0001)  cg2d: iter=     2 ; resid.=  4.71389256792679E-02
(PID.TID 0000.0001)  cg2d: iter=     3 ; resid.=  4.70129236020595E-02
(PID.TID 0000.0001)  cg2d: iter=     4 ; resid.=  4.54508917977384E-02
(PID.TID 0000.0001)  cg2d: iter=     5 ; resid.=  3.85239446021002E-02
(PID.TID 0000.0001)  cg2d: iter=     6 ; resid.=  3.86970162723446E-02
(PID.TID 0000.0001)  cg2d: iter=     7 ; resid.=  3.14039096148341E-02
(PID.TID 0000.0001)  cg2d: iter=     8 ; resid.=  2.36827592364977E-02
(PID.TID 0000.0001)  cg2d: iter=     9 ; resid.=  1.73491051218132E-02
(PID.TID 0000.0001)  cg2d: iter=    10 ; resid.=  1.29762959391322E-02
(PID.TID 0000.0001)  cg2d: iter=    11 ; resid.=  1.06119365479368E-02
(PID.TID 0000.0001)  cg2d: iter=    12 ; resid.=  8.85489717145679E-03
(PID.TID 0000.0001)  cg2d: iter=    13 ; resid.=  7.44135335001467E-03
(PID.TID 0000.0001)  cg2d: iter=    14 ; resid.=  6.36159433082414E-03
(PID.TID 0000.0001)  cg2d: iter=    15 ; resid.=  5.29067949382767E-03
(PID.TID 0000.0001)  cg2d: iter=    16 ; resid.=  4.56472930204844E-03
(PID.TID 0000.0001)  cg2d: iter=    17 ; resid.=  4.35827044592160E-03
(PID.TID 0000.0001)  cg2d: iter=    18 ; resid.=  3.69420889077937E-03
(PID.TID 0000.0001)  cg2d: iter=    19 ; resid.=  2.99101742410501E-03
(PID.TID 0000.0001)  cg2d: iter=    20 ; resid.=  2.39599209364329E-03
(PID.TID 0000.0001)  cg2d: iter=    21 ; resid.=  1.90071047050759E-03
(PID.TID 0000.0001)  cg2d: iter=    22 ; resid.=  1.67913860239708E-03
(PID.TID 0000.0001)  cg2d: iter=    23 ; resid.=  1.36014606603366E-03
(PID.TID 0000.0001)  cg2d: iter=    24 ; resid.=  1.18034457273169E-03
(PID.TID 0000.0001)  cg2d: iter=    25 ; resid.=  9.64476186060692E-04
(PID.TID 0000.0001)  cg2d: iter=    26 ; resid.=  7.21845510368132E-04
(PID.TID 0000.0001)  cg2d: iter=    27 ; resid.=  5.84324982504393E-04
(PID.TID 0000.0001)  cg2d: iter=    28 ; resid.=  4.76320088322747E-04
(PID.TID 0000.0001)  cg2d: iter=    29 ; resid.=  3.97421899916898E-04
(PID.TID 0000.0001)  cg2d: iter=    30 ; resid.=  3.32742538611037E-04
(PID.TID 0000.0001)  cg2d: iter=    31 ; resid.=  2.87449052918161E-04
(PID.TID 0000.0001)  cg2d: iter=    32 ; resid.=  2.24872733710139E-04
(PID.TID 0000.0001)  cg2d: iter=    33 ; resid.=  1.67639834172621E-04
(PID.TID 0000.0001)  cg2d: iter=    34 ; resid.=  1.49675253410196E-04
(PID.TID 0000.0001)  cg2d: iter=    35 ; resid.=  1.29043043319072E-04
(PID.TID 0000.0001)  cg2d: iter=    36 ; resid.=  1.04183856105865E-04
(PID.TID 0000.0001)  cg2d: iter=    37 ; resid.=  9.40121900301462E-05
(PID.TID 0000.0001)  cg2d: iter=    38 ; resid.=  7.95098667416105E-05
(PID.TID 0000.0001)  cg2d: iter=    39 ; resid.=  6.88204571847373E-05
(PID.TID 0000.0001)  cg2d: iter=    40 ; resid.=  5.77723924990770E-05
(PID.TID 0000.0001)  cg2d: iter=    41 ; resid.=  4.81206298009807E-05
(PID.TID 0000.0001)  cg2d: iter=    42 ; resid.=  4.05897549464270E-05
(PID.TID 0000.0001)  cg2d: iter=    43 ; resid.=  3.53150446524667E-05
(PID.TID 0000.0001)  cg2d: iter=    44 ; resid.=  2.88738403361660E-05
(PID.TID 0000.0001)  cg2d: iter=    45 ; resid.=  2.41817047390275E-05
(PID.TID 0000.0001)  cg2d: iter=    46 ; resid.=  1.88472061228085E-05
(PID.TID 0000.0001)  cg2d: iter=    47 ; resid.=  1.47352871351486E-05
(PID.TID 0000.0001)  cg2d: iter=    48 ; resid.=  1.33910785180896E-05
(PID.TID 0000.0001)  cg2d: iter=    49 ; resid.=  1.25747232838328E-05
(PID.TID 0000.0001)  cg2d: iter=    50 ; resid.=  1.05330162535940E-05
(PID.TID 0000.0001)  cg2d: iter=    51 ; resid.=  9.02681393354519E-06
(PID.TID 0000.0001)  cg2d: iter=    52 ; resid.=  7.68434083513675E-06
(PID.TID 0000.0001)  cg2d: iter=    53 ; resid.=  6.44067429578436E-06
(PID.TID 0000.0001)  cg2d: iter=    54 ; resid.=  4.90570607544480E-06
(PID.TID 0000.0001)  cg2d: iter=    55 ; resid.=  3.87716336731574E-06
(PID.TID 0000.0001)  cg2d: iter=    56 ; resid.=  3.46143947318444E-06
(PID.TID 0000.0001)  cg2d: iter=    57 ; resid.=  3.10401255518386E-06
(PID.TID 0000.0001)  cg2d: iter=    58 ; resid.=  2.46757637647422E-06
(PID.TID 0000.0001)  cg2d: iter=    59 ; resid.=  1.90670391882055E-06
(PID.TID 0000.0001)  cg2d: iter=    60 ; resid.=  1.68356032225340E-06
(PID.TID 0000.0001)  cg2d: iter=    61 ; resid.=  1.38761645982426E-06
(PID.TID 0000.0001)  cg2d: iter=    62 ; resid.=  1.15669691521170E-06
(PID.TID 0000.0001)  cg2d: iter=    63 ; resid.=  9.67166580345559E-07
(PID.TID 0000.0001)  cg2d: iter=    64 ; resid.=  7.56214225910919E-07
(PID.TID 0000.0001)  cg2d: iter=    65 ; resid.=  5.97960668327057E-07
(PID.TID 0000.0001)  cg2d: iter=    66 ; resid.=  4.78807369832436E-07
(PID.TID 0000.0001)  cg2d: iter=    67 ; resid.=  3.93307260866105E-07
(PID.TID 0000.0001)  cg2d: iter=    68 ; resid.=  3.30469452449463E-07
(PID.TID 0000.0001)  cg2d: iter=    69 ; resid.=  2.58845503378274E-07
(PID.TID 0000.0001)  cg2d: iter=    70 ; resid.=  2.05951750404786E-07
(PID.TID 0000.0001)  cg2d: iter=    71 ; resid.=  1.81507937662016E-07
(PID.TID 0000.0001)  cg2d: iter=    72 ; resid.=  1.62825033686098E-07
(PID.TID 0000.0001)  cg2d: iter=    73 ; resid.=  1.44686810491377E-07
(PID.TID 0000.0001)  cg2d: iter=    74 ; resid.=  1.30667055620610E-07
(PID.TID 0000.0001)  cg2d: iter=    75 ; resid.=  1.05562145183003E-07
(PID.TID 0000.0001)  cg2d: iter=    76 ; resid.=  8.04877015258307E-08
(PID.TID 0000.0001)  cg2d: iter=    77 ; resid.=  6.41749832912997E-08
(PID.TID 0000.0001)  cg2d: iter=    78 ; resid.=  5.48742600349052E-08
(PID.TID 0000.0001)  cg2d: iter=    79 ; resid.=  4.41604784080777E-08
(PID.TID 0000.0001)  cg2d: iter=    80 ; resid.=  3.62122642414313E-08
(PID.TID 0000.0001)  cg2d: iter=    81 ; resid.=  2.91328559788118E-08
(PID.TID 0000.0001)  cg2d: iter=    82 ; resid.=  2.06371203160681E-08
(PID.TID 0000.0001)  cg2d: iter=    83 ; resid.=  1.52096998848298E-08
(PID.TID 0000.0001)  cg2d: iter=    84 ; resid.=  1.12816834282451E-08
(PID.TID 0000.0001)  cg2d: iter=    85 ; resid.=  8.43785850812737E-09
(PID.TID 0000.0001)  cg2d: iter=    86 ; resid.=  6.43869972356502E-09
(PID.TID 0000.0001)  cg2d: iter=    87 ; resid.=  5.26279360949610E-09
(PID.TID 0000.0001)  cg2d: iter=    88 ; resid.=  4.27105850157343E-09
(PID.TID 0000.0001)  cg2d: iter=    89 ; resid.=  3.62945998424482E-09
(PID.TID 0000.0001)  cg2d: iter=    90 ; resid.=  2.98401456109120E-09
(PID.TID 0000.0001)  cg2d: iter=    91 ; resid.=  2.27652910750870E-09
(PID.TID 0000.0001)  cg2d: iter=    92 ; resid.=  1.75428567203669E-09
(PID.TID 0000.0001)  cg2d: iter=    93 ; resid.=  1.26379365856174E-09
(PID.TID 0000.0001)  cg2d: iter=    94 ; resid.=  1.00203789717233E-09
(PID.TID 0000.0001)  cg2d: iter=    95 ; resid.=  8.75207816373324E-10
(PID.TID 0000.0001)  cg2d: iter=    96 ; resid.=  7.01108657725514E-10
(PID.TID 0000.0001)  cg2d: iter=    97 ; resid.=  5.21501368800341E-10
(PID.TID 0000.0001)  cg2d: iter=    98 ; resid.=  4.14802739610581E-10
(PID.TID 0000.0001)  cg2d: iter=    99 ; resid.=  3.70929809254830E-10
(PID.TID 0000.0001)  cg2d: iter=   100 ; resid.=  3.44789974243167E-10
(PID.TID 0000.0001)  cg2d: iter=   101 ; resid.=  2.89134808043723E-10
(PID.TID 0000.0001)  cg2d: iter=   102 ; resid.=  2.25294689198566E-10
(PID.TID 0000.0001)  cg2d: iter=   103 ; resid.=  1.77582938018421E-10
(PID.TID 0000.0001)  cg2d: iter=   104 ; resid.=  1.41420981159446E-10
(PID.TID 0000.0001)  cg2d: iter=   105 ; resid.=  1.17947947770309E-10
(PID.TID 0000.0001)  cg2d: iter=   106 ; resid.=  8.73072936812129E-11
(PID.TID 0000.0001)  cg2d: iter=   107 ; resid.=  6.69161861839908E-11
(PID.TID 0000.0001)  cg2d: iter=   108 ; resid.=  4.99088133546107E-11
(PID.TID 0000.0001)  cg2d: iter=   109 ; resid.=  3.65838257011636E-11
(PID.TID 0000.0001)  cg2d: iter=   110 ; resid.=  2.76916771037085E-11
(PID.TID 0000.0001)  cg2d: iter=   111 ; resid.=  2.18047459519145E-11
(PID.TID 0000.0001)  cg2d: iter=   112 ; resid.=  1.64157115072162E-11
(PID.TID 0000.0001)  cg2d: iter=   113 ; resid.=  1.12512741784308E-11
(PID.TID 0000.0001)  cg2d: iter=   114 ; resid.=  8.98602054566678E-12
(PID.TID 0000.0001)  cg2d: iter=   115 ; resid.=  7.36127632303887E-12
(PID.TID 0000.0001)  cg2d: iter=   116 ; resid.=  5.52830352968115E-12
(PID.TID 0000.0001)  cg2d: iter=   117 ; resid.=  4.35039252241893E-12
(PID.TID 0000.0001)  cg2d: iter=   118 ; resid.=  3.39181885337144E-12
(PID.TID 0000.0001)  cg2d: iter=   119 ; resid.=  2.30002475385409E-12
(PID.TID 0000.0001)  cg2d: iter=   120 ; resid.=  1.78033866396521E-12
(PID.TID 0000.0001)  cg2d: iter=   121 ; resid.=  1.45424148948439E-12
(PID.TID 0000.0001)  cg2d: iter=   122 ; resid.=  1.04676885227113E-12
(PID.TID 0000.0001)  cg2d: iter=   123 ; resid.=  7.95773692316769E-13
(PID.TID 0000.0001)  cg2d: iter=   124 ; resid.=  6.13986644891442E-13
(PID.TID 0000.0001)  cg2d: iter=   125 ; resid.=  4.41633679064033E-13
(PID.TID 0000.0001)  cg2d: iter=   126 ; resid.=  3.20224061965882E-13
(PID.TID 0000.0001)  cg2d: iter=   127 ; resid.=  2.18585420478924E-13
(PID.TID 0000.0001)  cg2d: iter=   128 ; resid.=  1.66989582294040E-13
(PID.TID 0000.0001)  cg2d: iter=   129 ; resid.=  1.17711545370786E-13
(PID.TID 0000.0001)  cg2d: iter=   130 ; resid.=  8.59182537307984E-14
DEBUG_STATS_RL:    cg2d_x (SOLVE_FOR_PRESSURE)  min= -1.86750669667723E+01
DEBUG_STATS_RL:    cg2d_x (SOLVE_FOR_PRESSURE)  max=  8.65398845088862E+00
DEBUG_STATS_RL:    cg2d_x (SOLVE_FOR_PRESSURE) mean= -1.86695399329375E+00
DEBUG_STATS_RL:    cg2d_x (SOLVE_FOR_PRESSURE) S.D.=  7.10923094150615E+00
(PID.TID 0000.0001)      cg2d_init_res =   1.88203082110941E-01
(PID.TID 0000.0001)      cg2d_iters(min,last) =      -1     130
(PID.TID 0000.0001)      cg2d_last_res =   8.59182537307984E-14
(PID.TID 0000.0001) // =======================================================
(PID.TID 0000.0001) // Begin MONITOR dynamic field statistics
(PID.TID 0000.0001) // =======================================================
(PID.TID 0000.0001) %MON time_tsnumber                =                    91
(PID.TID 0000.0001) %MON time_secondsf                =   7.8624000000000E+06
(PID.TID 0000.0001) %MON dynstat_eta_max              =   8.8215988286327E-01
(PID.TID 0000.0001) %MON dynstat_eta_min              =  -1.9036765511491E+00
(PID.TID 0000.0001) %MON dynstat_eta_mean             =  -5.7919489853290E-03
(PID.TID 0000.0001) %MON dynstat_eta_sd               =   6.2169025687233E-01
(PID.TID 0000.0001) %MON dynstat_eta_del2             =   2.5406407444669E-03
(PID.TID 0000.0001) %MON dynstat_uvel_max             =   1.4513252860316E-01
(PID.TID 0000.0001) %MON dynstat_uvel_min             =  -1.3614266035026E-01
(PID.TID 0000.0001) %MON dynstat_uvel_mean            =   2.4383907708954E-03
(PID.TID 0000.0001) %MON dynstat_uvel_sd              =   1.4190191239596E-02
(PID.TID 0000.0001) %MON dynstat_uvel_del2            =   9.3155967566549E-05
(PID.TID 0000.0001) %MON dynstat_vvel_max             =   1.3520919636563E-01
(PID.TID 0000.0001) %MON dynstat_vvel_min             =  -8.5901662182058E-02
(PID.TID 0000.0001) %MON dynstat_vvel_mean            =   4.9896335899534E-05
(PID.TID 0000.0001) %MON dynstat_vvel_sd              =   8.0067817961003E-03
(PID.TID 0000.0001) %MON dynstat_vvel_del2            =   7.5617859691905E-05
(PID.TID 0000.0001) %MON dynstat_wvel_max             =   1.3798456130294E-04
(PID.TID 0000.0001) %MON dynstat_wvel_min             =  -5.7494325103564E-05
(PID.TID 0000.0001) %MON dynstat_wvel_mean            =   7.6357016278420E-23
(PID.TID 0000.0001) %MON dynstat_wvel_sd              =   9.6056628942334E-06
(PID.TID 0000.0001) %MON dynstat_wvel_del2            =   9.4448772208347E-08
(PID.TID 0000.0001) %MON dynstat_theta_max            =   3.1227091502917E+01
(PID.TID 0000.0001) %MON dynstat_theta_min            =  -1.9323152313330E+00
(PID.TID 0000.0001) %MON dynstat_theta_mean           =   3.6343011971137E+00
(PID.TID 0000.0001) %MON dynstat_theta_sd             =   4.4288676252862E+00
(PID.TID 0000.0001) %MON dynstat_theta_del2           =   4.8223610232874E-03
(PID.TID 0000.0001) %MON dynstat_salt_max             =   3.7476412939573E+01
(PID.TID 0000.0001) %MON dynstat_salt_min             =   2.9955226795916E+01
(PID.TID 0000.0001) %MON dynstat_salt_mean            =   3.4728000130265E+01
(PID.TID 0000.0001) %MON dynstat_salt_sd              =   2.9665265710943E-01
(PID.TID 0000.0001) %MON dynstat_salt_del2            =   9.9858347464189E-04
(PID.TID 0000.0001) %MON dynstat_sst_max              =   3.1227091502917E+01
(PID.TID 0000.0001) %MON dynstat_sst_min              =  -1.9323152313330E+00
(PID.TID 0000.0001) %MON dynstat_sst_mean             =   1.9055486242594E+01
(PID.TID 0000.0001) %MON dynstat_sst_sd               =   9.2616076568878E+00
(PID.TID 0000.0001) %MON dynstat_sst_del2             =   2.9326619144627E-02
(PID.TID 0000.0001) %MON dynstat_sss_max              =   3.7476412939573E+01
(PID.TID 0000.0001) %MON dynstat_sss_min              =   2.9955226795916E+01
(PID.TID 0000.0001) %MON dynstat_sss_mean             =   3.4846930694551E+01
(PID.TID 0000.0001) %MON dynstat_sss_sd               =   9.9124005198188E-01
(PID.TID 0000.0001) %MON dynstat_sss_del2             =   8.3200316322884E-03
(PID.TID 0000.0001) %MON forcing_qnet_max             =   2.0392916870117E+02
(PID.TID 0000.0001) %MON forcing_qnet_min             =  -1.5743564605713E+02
(PID.TID 0000.0001) %MON forcing_qnet_mean            =  -1.3095195556001E+00
(PID.TID 0000.0001) %MON forcing_qnet_sd              =   3.9393235580396E+01
(PID.TID 0000.0001) %MON forcing_qnet_del2            =   7.8410744679858E-01
(PID.TID 0000.0001) %MON forcing_qsw_max              =   0.0000000000000E+00
(PID.TID 0000.0001) %MON forcing_qsw_min              =   0.0000000000000E+00
(PID.TID 0000.0001) %MON forcing_qsw_mean             =   0.0000000000000E+00
(PID.TID 0000.0001) %MON forcing_qsw_sd               =   0.0000000000000E+00
(PID.TID 0000.0001) %MON forcing_qsw_del2             =   0.0000000000000E+00
(PID.TID 0000.0001) %MON forcing_empmr_max            =   6.7666256597931E-05
(PID.TID 0000.0001) %MON forcing_empmr_min            =  -8.3487108781810E-05
(PID.TID 0000.0001) %MON forcing_empmr_mean           =   2.1403058126522E-07
(PID.TID 0000.0001) %MON forcing_empmr_sd             =   2.5565388695829E-05
(PID.TID 0000.0001) %MON forcing_empmr_del2           =   3.6396270903626E-07
(PID.TID 0000.0001) %MON forcing_fu_max               =   3.4788966178894E-01
(PID.TID 0000.0001) %MON forcing_fu_min               =  -4.0255250036716E-01
(PID.TID 0000.0001) %MON forcing_fu_mean              =   1.8548847846395E-02
(PID.TID 0000.0001) %MON forcing_fu_sd                =   1.0035271102414E-01
(PID.TID 0000.0001) %MON forcing_fu_del2              =   7.7663796698736E-04
(PID.TID 0000.0001) %MON forcing_fv_max               =   1.8186032772064E-01
(PID.TID 0000.0001) %MON forcing_fv_min               =  -1.4296149462461E-01
(PID.TID 0000.0001) %MON forcing_fv_mean              =  -6.9824253544491E-03
(PID.TID 0000.0001) %MON forcing_fv_sd                =   3.8754640563461E-02
(PID.TID 0000.0001) %MON forcing_fv_del2              =   4.1635659249550E-04
(PID.TID 0000.0001) %MON trAdv_CFL_u_max              =   4.4327626222247E-02
(PID.TID 0000.0001) %MON trAdv_CFL_v_max              =   2.6356458355451E-02
(PID.TID 0000.0001) %MON trAdv_CFL_w_max              =   3.1277879439399E-02
(PID.TID 0000.0001) %MON advcfl_uvel_max              =   4.4561599262965E-02
(PID.TID 0000.0001) %MON advcfl_vvel_max              =   2.6268978359041E-02
(PID.TID 0000.0001) %MON advcfl_wvel_max              =   3.1924118287518E-02
(PID.TID 0000.0001) %MON advcfl_W_hf_max              =   3.4271479926306E-02
(PID.TID 0000.0001) %MON pe_b_mean                    =   4.9461469604259E-04
(PID.TID 0000.0001) %MON ke_max                       =   1.2182187810020E-02
(PID.TID 0000.0001) %MON ke_mean                      =   1.2296509131884E-04
(PID.TID 0000.0001) %MON ke_vol                       =   1.3226782436723E+18
(PID.TID 0000.0001) %MON vort_r_min                   =  -3.5267599072785E-07
(PID.TID 0000.0001) %MON vort_r_max                   =   4.0375650070210E-07
(PID.TID 0000.0001) %MON vort_a_mean                  =  -2.5274807162935E-05
(PID.TID 0000.0001) %MON vort_a_sd                    =   7.3604661182838E-05
(PID.TID 0000.0001) %MON vort_p_mean                  =  -3.1845655503987E-05
(PID.TID 0000.0001) %MON vort_p_sd                    =   1.3162482832516E-04
(PID.TID 0000.0001) %MON surfExpan_theta_mean         =  -1.5797169798758E-07
(PID.TID 0000.0001) %MON surfExpan_salt_mean          =   7.2853402969438E-08
(PID.TID 0000.0001) // =======================================================
(PID.TID 0000.0001) // End MONITOR dynamic field statistics
(PID.TID 0000.0001) // =======================================================
 EXTERNAL_FIELDS_LOAD,        91 : iP,iLd,i0,i1=    3    4    3    4 ; Wght=  0.4666666667  0.5333333333
 EXTERNAL_FIELDS_LOAD: (fu0,1),fu,fv= -2.7199E-02 -3.7252E-02 -3.2561E-02 -1.9052E-02
 EXTERNAL_FIELDS_LOAD: SST,SSS,Q,E-P= -6.6976E-02  3.4574E+01  1.5604E+02  8.3812E-06
DEBUG_STATS_RL:          Uvel (THERMODYNAMICS)  min= -1.36142660350261E-01
DEBUG_STATS_RL:          Uvel (THERMODYNAMICS)  max=  1.45132528603156E-01
DEBUG_STATS_RL:          Uvel (THERMODYNAMICS) mean=  5.95978031451330E-03
DEBUG_STATS_RL:          Uvel (THERMODYNAMICS) S.D.=  2.21009050735127E-02
DEBUG_STATS_RL:          Vvel (THERMODYNAMICS)  min= -8.59016621820583E-02
DEBUG_STATS_RL:          Vvel (THERMODYNAMICS)  max=  1.35209196365629E-01
DEBUG_STATS_RL:          Vvel (THERMODYNAMICS) mean=  9.28261866802835E-04
DEBUG_STATS_RL:          Vvel (THERMODYNAMICS) S.D.=  1.29683276356680E-02
DEBUG_STATS_RL:          Wvel (THERMODYNAMICS)  min= -5.74943251035639E-05
DEBUG_STATS_RL:          Wvel (THERMODYNAMICS)  max=  1.37984561302939E-04
DEBUG_STATS_RL:          Wvel (THERMODYNAMICS) mean= -3.08711206439987E-08
DEBUG_STATS_RL:          Wvel (THERMODYNAMICS) S.D.=  8.47752658137169E-06
DEBUG_STATS_RL:         Theta (THERMODYNAMICS)  min= -1.93109655149971E+00
DEBUG_STATS_RL:         Theta (THERMODYNAMICS)  max=  3.12411520542205E+01
DEBUG_STATS_RL:         Theta (THERMODYNAMICS) mean=  3.23019274167819E+00
DEBUG_STATS_RL:         Theta (THERMODYNAMICS) S.D.=  5.88905487308507E+00
DEBUG_STATS_RL:          Salt (THERMODYNAMICS)  min=  9.99999999999996E-03
DEBUG_STATS_RL:          Salt (THERMODYNAMICS)  max=  3.74771048348926E+01
DEBUG_STATS_RL:          Salt (THERMODYNAMICS) mean=  1.88547372115935E+01
DEBUG_STATS_RL:          Salt (THERMODYNAMICS) S.D.=  1.73002978765183E+01
DEBUG_STATS_RL:         GtNm1 (THERMODYNAMICS)  min= -3.14335911654272E-06
DEBUG_STATS_RL:         GtNm1 (THERMODYNAMICS)  max=  1.95753652209061E-06
DEBUG_STATS_RL:         GtNm1 (THERMODYNAMICS) mean= -1.84723976168548E-09
DEBUG_STATS_RL:         GtNm1 (THERMODYNAMICS) S.D.=  1.33266734214223E-07
DEBUG_STATS_RL:         GsNm1 (THERMODYNAMICS)  min= -3.69003193187154E-07
DEBUG_STATS_RL:         GsNm1 (THERMODYNAMICS)  max=  2.51683567050171E-07
DEBUG_STATS_RL:         GsNm1 (THERMODYNAMICS) mean= -2.34101443573573E-10
DEBUG_STATS_RL:         GsNm1 (THERMODYNAMICS) S.D.=  1.31578814256425E-08
DEBUG_STATS_RL:                EtaN (DYNAMICS)  min= -1.90367655114907E+00
DEBUG_STATS_RL:                EtaN (DYNAMICS)  max=  8.82159882863268E-01
DEBUG_STATS_RL:                EtaN (DYNAMICS) mean= -1.90311314301096E-01
DEBUG_STATS_RL:                EtaN (DYNAMICS) S.D.=  7.24692246840593E-01
DEBUG_STATS_RL:                Uvel (DYNAMICS)  min= -1.36142660350261E-01
DEBUG_STATS_RL:                Uvel (DYNAMICS)  max=  1.45132528603156E-01
DEBUG_STATS_RL:                Uvel (DYNAMICS) mean=  5.95978031451330E-03
DEBUG_STATS_RL:                Uvel (DYNAMICS) S.D.=  2.21009050735127E-02
DEBUG_STATS_RL:                Vvel (DYNAMICS)  min= -8.59016621820583E-02
DEBUG_STATS_RL:                Vvel (DYNAMICS)  max=  1.35209196365629E-01
DEBUG_STATS_RL:                Vvel (DYNAMICS) mean=  9.28261866802835E-04
DEBUG_STATS_RL:                Vvel (DYNAMICS) S.D.=  1.29683276356680E-02
DEBUG_STATS_RL:                Wvel (DYNAMICS)  min= -5.74943251035639E-05
DEBUG_STATS_RL:                Wvel (DYNAMICS)  max=  1.37984561302939E-04
DEBUG_STATS_RL:                Wvel (DYNAMICS) mean= -3.08711206439987E-08
DEBUG_STATS_RL:                Wvel (DYNAMICS) S.D.=  8.47752658137169E-06
DEBUG_STATS_RL:               Theta (DYNAMICS)  min= -1.93109655149971E+00
DEBUG_STATS_RL:               Theta (DYNAMICS)  max=  3.12411520542205E+01
DEBUG_STATS_RL:               Theta (DYNAMICS) mean=  3.23019274167819E+00
DEBUG_STATS_RL:               Theta (DYNAMICS) S.D.=  5.88905487308507E+00
DEBUG_STATS_RL:                Salt (DYNAMICS)  min=  9.99999999999996E-03
DEBUG_STATS_RL:                Salt (DYNAMICS)  max=  3.74771048348926E+01
DEBUG_STATS_RL:                Salt (DYNAMICS) mean=  1.88547372115935E+01
DEBUG_STATS_RL:                Salt (DYNAMICS) S.D.=  1.73002978765183E+01
DEBUG_STATS_RL:                  Gu (DYNAMICS)  min= -1.35155765872007E-01
DEBUG_STATS_RL:                  Gu (DYNAMICS)  max=  1.38886819055351E-01
DEBUG_STATS_RL:                  Gu (DYNAMICS) mean=  5.90959103801991E-03
DEBUG_STATS_RL:                  Gu (DYNAMICS) S.D.=  2.24929692318516E-02
DEBUG_STATS_RL:                  Gv (DYNAMICS)  min= -8.36684039220366E-02
DEBUG_STATS_RL:                  Gv (DYNAMICS)  max=  1.35256439387440E-01
DEBUG_STATS_RL:                  Gv (DYNAMICS) mean=  3.50283129917010E-03
DEBUG_STATS_RL:                  Gv (DYNAMICS) S.D.=  1.45354385117505E-02
DEBUG_STATS_RL:               GuNm1 (DYNAMICS)  min= -9.69300747844400E-06
DEBUG_STATS_RL:               GuNm1 (DYNAMICS)  max=  9.94867639894903E-06
DEBUG_STATS_RL:               GuNm1 (DYNAMICS) mean=  1.47042692009584E-08
DEBUG_STATS_RL:               GuNm1 (DYNAMICS) S.D.=  1.22690385404691E-06
DEBUG_STATS_RL:               GvNm1 (DYNAMICS)  min= -9.29037278986651E-06
DEBUG_STATS_RL:               GvNm1 (DYNAMICS)  max=  1.51371728531400E-05
DEBUG_STATS_RL:               GvNm1 (DYNAMICS) mean=  7.39625970367798E-07
DEBUG_STATS_RL:               GvNm1 (DYNAMICS) S.D.=  2.60450244226545E-06
DEBUG_STATS_RL:               GtNm1 (DYNAMICS)  min= -3.14335911654272E-06
DEBUG_STATS_RL:               GtNm1 (DYNAMICS)  max=  1.95753652209061E-06
DEBUG_STATS_RL:               GtNm1 (DYNAMICS) mean= -1.84723976168548E-09
DEBUG_STATS_RL:               GtNm1 (DYNAMICS) S.D.=  1.33266734214223E-07
DEBUG_STATS_RL:               GsNm1 (DYNAMICS)  min= -3.69003193187154E-07
DEBUG_STATS_RL:               GsNm1 (DYNAMICS)  max=  2.51683567050171E-07
DEBUG_STATS_RL:               GsNm1 (DYNAMICS) mean= -2.34101443573573E-10
DEBUG_STATS_RL:               GsNm1 (DYNAMICS) S.D.=  1.31578814256425E-08
DEBUG_STATS_RL:    cg2d_b (SOLVE_FOR_PRESSURE)  min= -2.87800206240907E+04
DEBUG_STATS_RL:    cg2d_b (SOLVE_FOR_PRESSURE)  max=  3.08373241597350E+04
DEBUG_STATS_RL:    cg2d_b (SOLVE_FOR_PRESSURE) mean=  5.56649008911416E+00
DEBUG_STATS_RL:    cg2d_b (SOLVE_FOR_PRESSURE) S.D.=  4.00574683620998E+03
 cg2d: Sum(rhs),rhsMax =   4.17884006068307E-01  2.02547801545598E+00
(PID.TID 0000.0001)  cg2d: iter=     1 ; resid.=  6.06256646324503E-02
(PID.TID 0000.0001)  cg2d: iter=     2 ; resid.=  4.36798550509666E-02
(PID.TID 0000.0001)  cg2d: iter=     3 ; resid.=  4.24545626372179E-02
(PID.TID 0000.0001)  cg2d: iter=     4 ; resid.=  4.09420319123809E-02
(PID.TID 0000.0001)  cg2d: iter=     5 ; resid.=  3.42206000261512E-02
(PID.TID 0000.0001)  cg2d: iter=     6 ; resid.=  3.44008370392577E-02
(PID.TID 0000.0001)  cg2d: iter=     7 ; resid.=  2.81342816045777E-02
(PID.TID 0000.0001)  cg2d: iter=     8 ; resid.=  2.19091265176755E-02
(PID.TID 0000.0001)  cg2d: iter=     9 ; resid.=  1.65067826824215E-02
(PID.TID 0000.0001)  cg2d: iter=    10 ; resid.=  1.25005314090164E-02
(PID.TID 0000.0001)  cg2d: iter=    11 ; resid.=  1.02504394903022E-02
(PID.TID 0000.0001)  cg2d: iter=    12 ; resid.=  8.47499071275970E-03
(PID.TID 0000.0001)  cg2d: iter=    13 ; resid.=  6.90653806351422E-03
(PID.TID 0000.0001)  cg2d: iter=    14 ; resid.=  5.82391111115060E-03
(PID.TID 0000.0001)  cg2d: iter=    15 ; resid.=  4.82527136733679E-03
(PID.TID 0000.0001)  cg2d: iter=    16 ; resid.=  4.14436637720934E-03
(PID.TID 0000.0001)  cg2d: iter=    17 ; resid.=  3.96907321044048E-03
(PID.TID 0000.0001)  cg2d: iter=    18 ; resid.=  3.41042430896345E-03
(PID.TID 0000.0001)  cg2d: iter=    19 ; resid.=  2.84363751883629E-03
(PID.TID 0000.0001)  cg2d: iter=    20 ; resid.=  2.28328574071999E-03
(PID.TID 0000.0001)  cg2d: iter=    21 ; resid.=  1.82747540262270E-03
(PID.TID 0000.0001)  cg2d: iter=    22 ; resid.=  1.61115465212837E-03
(PID.TID 0000.0001)  cg2d: iter=    23 ; resid.=  1.28455710348416E-03
(PID.TID 0000.0001)  cg2d: iter=    24 ; resid.=  1.10727445895181E-03
(PID.TID 0000.0001)  cg2d: iter=    25 ; resid.=  8.94147967445617E-04
(PID.TID 0000.0001)  cg2d: iter=    26 ; resid.=  6.77082358484703E-04
(PID.TID 0000.0001)  cg2d: iter=    27 ; resid.=  5.54271868386572E-04
(PID.TID 0000.0001)  cg2d: iter=    28 ; resid.=  4.57863461278243E-04
(PID.TID 0000.0001)  cg2d: iter=    29 ; resid.=  3.82299325336092E-04
(PID.TID 0000.0001)  cg2d: iter=    30 ; resid.=  3.20883136074578E-04
(PID.TID 0000.0001)  cg2d: iter=    31 ; resid.=  2.81225434659562E-04
(PID.TID 0000.0001)  cg2d: iter=    32 ; resid.=  2.20181656639261E-04
(PID.TID 0000.0001)  cg2d: iter=    33 ; resid.=  1.65020305994865E-04
(PID.TID 0000.0001)  cg2d: iter=    34 ; resid.=  1.48606163646086E-04
(PID.TID 0000.0001)  cg2d: iter=    35 ; resid.=  1.26597667939071E-04
(PID.TID 0000.0001)  cg2d: iter=    36 ; resid.=  1.02721059878187E-04
(PID.TID 0000.0001)  cg2d: iter=    37 ; resid.=  9.29851191240217E-05
(PID.TID 0000.0001)  cg2d: iter=    38 ; resid.=  7.83753129279694E-05
(PID.TID 0000.0001)  cg2d: iter=    39 ; resid.=  6.77065517903558E-05
(PID.TID 0000.0001)  cg2d: iter=    40 ; resid.=  5.72186322298287E-05
(PID.TID 0000.0001)  cg2d: iter=    41 ; resid.=  4.82803808481675E-05
(PID.TID 0000.0001)  cg2d: iter=    42 ; resid.=  4.15485601187745E-05
(PID.TID 0000.0001)  cg2d: iter=    43 ; resid.=  3.67616365603717E-05
(PID.TID 0000.0001)  cg2d: iter=    44 ; resid.=  2.98559699311839E-05
(PID.TID 0000.0001)  cg2d: iter=    45 ; resid.=  2.45262100219644E-05
(PID.TID 0000.0001)  cg2d: iter=    46 ; resid.=  1.89567205667083E-05
(PID.TID 0000.0001)  cg2d: iter=    47 ; resid.=  1.48332148651784E-05
(PID.TID 0000.0001)  cg2d: iter=    48 ; resid.=  1.34303308698228E-05
(PID.TID 0000.0001)  cg2d: iter=    49 ; resid.=  1.23877148331032E-05
(PID.TID 0000.0001)  cg2d: iter=    50 ; resid.=  1.01805731928632E-05
(PID.TID 0000.0001)  cg2d: iter=    51 ; resid.=  8.64897222709604E-06
(PID.TID 0000.0001)  cg2d: iter=    52 ; resid.=  7.33475343330597E-06
(PID.TID 0000.0001)  cg2d: iter=    53 ; resid.=  6.19999324919036E-06
(PID.TID 0000.0001)  cg2d: iter=    54 ; resid.=  4.85861040183215E-06
(PID.TID 0000.0001)  cg2d: iter=    55 ; resid.=  3.87483527664728E-06
(PID.TID 0000.0001)  cg2d: iter=    56 ; resid.=  3.43012552559040E-06
(PID.TID 0000.0001)  cg2d: iter=    57 ; resid.=  2.99850200443312E-06
(PID.TID 0000.0001)  cg2d: iter=    58 ; resid.=  2.31902684478313E-06
(PID.TID 0000.0001)  cg2d: iter=    59 ; resid.=  1.77742475773017E-06
(PID.TID 0000.0001)  cg2d: iter=    60 ; resid.=  1.55417227779835E-06
(PID.TID 0000.0001)  cg2d: iter=    61 ; resid.=  1.29287154337207E-06
(PID.TID 0000.0001)  cg2d: iter=    62 ; resid.=  1.09123665289328E-06
(PID.TID 0000.0001)  cg2d: iter=    63 ; resid.=  9.37975130793383E-07
(PID.TID 0000.0001)  cg2d: iter=    64 ; resid.=  7.49230925938304E-07
(PID.TID 0000.0001)  cg2d: iter=    65 ; resid.=  5.93270069823138E-07
(PID.TID 0000.0001)  cg2d: iter=    66 ; resid.=  4.68636091500311E-07
(PID.TID 0000.0001)  cg2d: iter=    67 ; resid.=  3.82289660014927E-07
(PID.TID 0000.0001)  cg2d: iter=    68 ; resid.=  3.10458486702462E-07
(PID.TID 0000.0001)  cg2d: iter=    69 ; resid.=  2.36064893053649E-07
(PID.TID 0000.0001)  cg2d: iter=    70 ; resid.=  1.83895715185579E-07
(PID.TID 0000.0001)  cg2d: iter=    71 ; resid.=  1.62955429524105E-07
(PID.TID 0000.0001)  cg2d: iter=    72 ; resid.=  1.46626277972830E-07
(PID.TID 0000.0001)  cg2d: iter=    73 ; resid.=  1.34508967745120E-07
(PID.TID 0000.0001)  cg2d: iter=    74 ; resid.=  1.22098592970679E-07
(PID.TID 0000.0001)  cg2d: iter=    75 ; resid.=  9.67719797971850E-08
(PID.TID 0000.0001)  cg2d: iter=    76 ; resid.=  7.39707913085284E-08
(PID.TID 0000.0001)  cg2d: iter=    77 ; resid.=  6.09684367603544E-08
(PID.TID 0000.0001)  cg2d: iter=    78 ; resid.=  5.17665000442061E-08
(PID.TID 0000.0001)  cg2d: iter=    79 ; resid.=  4.17812277488227E-08
(PID.TID 0000.0001)  cg2d: iter=    80 ; resid.=  3.41743092961309E-08
(PID.TID 0000.0001)  cg2d: iter=    81 ; resid.=  2.66386616886827E-08
(PID.TID 0000.0001)  cg2d: iter=    82 ; resid.=  1.90097964402551E-08
(PID.TID 0000.0001)  cg2d: iter=    83 ; resid.=  1.39925528676721E-08
(PID.TID 0000.0001)  cg2d: iter=    84 ; resid.=  1.03115056321614E-08
(PID.TID 0000.0001)  cg2d: iter=    85 ; resid.=  7.71993704767331E-09
(PID.TID 0000.0001)  cg2d: iter=    86 ; resid.=  6.02715327083882E-09
(PID.TID 0000.0001)  cg2d: iter=    87 ; resid.=  4.93275057480655E-09
(PID.TID 0000.0001)  cg2d: iter=    88 ; resid.=  3.99505240917903E-09
(PID.TID 0000.0001)  cg2d: iter=    89 ; resid.=  3.37264504104623E-09
(PID.TID 0000.0001)  cg2d: iter=    90 ; resid.=  2.76536693883293E-09
(PID.TID 0000.0001)  cg2d: iter=    91 ; resid.=  2.11529153076091E-09
(PID.TID 0000.0001)  cg2d: iter=    92 ; resid.=  1.59833013043731E-09
(PID.TID 0000.0001)  cg2d: iter=    93 ; resid.=  1.15237731498846E-09
(PID.TID 0000.0001)  cg2d: iter=    94 ; resid.=  9.15529464910976E-10
(PID.TID 0000.0001)  cg2d: iter=    95 ; resid.=  8.00495164549952E-10
(PID.TID 0000.0001)  cg2d: iter=    96 ; resid.=  6.44118474603810E-10
(PID.TID 0000.0001)  cg2d: iter=    97 ; resid.=  4.79381168867414E-10
(PID.TID 0000.0001)  cg2d: iter=    98 ; resid.=  3.77659529785417E-10
(PID.TID 0000.0001)  cg2d: iter=    99 ; resid.=  3.29349654247718E-10
(PID.TID 0000.0001)  cg2d: iter=   100 ; resid.=  3.05962035839088E-10
(PID.TID 0000.0001)  cg2d: iter=   101 ; resid.=  2.57265150582657E-10
(PID.TID 0000.0001)  cg2d: iter=   102 ; resid.=  2.02690161235590E-10
(PID.TID 0000.0001)  cg2d: iter=   103 ; resid.=  1.62643749985227E-10
(PID.TID 0000.0001)  cg2d: iter=   104 ; resid.=  1.30924229221995E-10
(PID.TID 0000.0001)  cg2d: iter=   105 ; resid.=  1.10367290805567E-10
(PID.TID 0000.0001)  cg2d: iter=   106 ; resid.=  8.14135212306337E-11
(PID.TID 0000.0001)  cg2d: iter=   107 ; resid.=  6.32830332978541E-11
(PID.TID 0000.0001)  cg2d: iter=   108 ; resid.=  4.72639991317386E-11
(PID.TID 0000.0001)  cg2d: iter=   109 ; resid.=  3.47488244154274E-11
(PID.TID 0000.0001)  cg2d: iter=   110 ; resid.=  2.68015690029487E-11
(PID.TID 0000.0001)  cg2d: iter=   111 ; resid.=  2.18803832566307E-11
(PID.TID 0000.0001)  cg2d: iter=   112 ; resid.=  1.67377627611001E-11
(PID.TID 0000.0001)  cg2d: iter=   113 ; resid.=  1.16060343331940E-11
(PID.TID 0000.0001)  cg2d: iter=   114 ; resid.=  9.20093673859175E-12
(PID.TID 0000.0001)  cg2d: iter=   115 ; resid.=  7.42957852032030E-12
(PID.TID 0000.0001)  cg2d: iter=   116 ; resid.=  5.41884304354152E-12
(PID.TID 0000.0001)  cg2d: iter=   117 ; resid.=  4.21636251678467E-12
(PID.TID 0000.0001)  cg2d: iter=   118 ; resid.=  3.30597499924417E-12
(PID.TID 0000.0001)  cg2d: iter=   119 ; resid.=  2.26450111447803E-12
(PID.TID 0000.0001)  cg2d: iter=   120 ; resid.=  1.74987035915652E-12
(PID.TID 0000.0001)  cg2d: iter=   121 ; resid.=  1.43272186871892E-12
(PID.TID 0000.0001)  cg2d: iter=   122 ; resid.=  1.02376445549273E-12
(PID.TID 0000.0001)  cg2d: iter=   123 ; resid.=  7.70682939322389E-13
(PID.TID 0000.0001)  cg2d: iter=   124 ; resid.=  5.94830341813545E-13
(PID.TID 0000.0001)  cg2d: iter=   125 ; resid.=  4.38008618528537E-13
(PID.TID 0000.0001)  cg2d: iter=   126 ; resid.=  3.21992749954232E-13
(PID.TID 0000.0001)  cg2d: iter=   127 ; resid.=  2.19952945198207E-13
(PID.TID 0000.0001)  cg2d: iter=   128 ; resid.=  1.66919530943779E-13
(PID.TID 0000.0001)  cg2d: iter=   129 ; resid.=  1.17825365557320E-13
(PID.TID 0000.0001)  cg2d: iter=   130 ; resid.=  8.57580502720445E-14
DEBUG_STATS_RL:    cg2d_x (SOLVE_FOR_PRESSURE)  min= -1.85172783550267E+01
DEBUG_STATS_RL:    cg2d_x (SOLVE_FOR_PRESSURE)  max=  8.53681213371947E+00
DEBUG_STATS_RL:    cg2d_x (SOLVE_FOR_PRESSURE) mean= -1.85895537362774E+00
DEBUG_STATS_RL:    cg2d_x (SOLVE_FOR_PRESSURE) S.D.=  7.08096533878161E+00
(PID.TID 0000.0001)      cg2d_init_res =   1.84772700200094E-01
(PID.TID 0000.0001)      cg2d_iters(min,last) =      -1     130
(PID.TID 0000.0001)      cg2d_last_res =   8.57580502720445E-14
(PID.TID 0000.0001) // =======================================================
(PID.TID 0000.0001) // Begin MONITOR dynamic field statistics
(PID.TID 0000.0001) // =======================================================
(PID.TID 0000.0001) %MON time_tsnumber                =                    92
(PID.TID 0000.0001) %MON time_secondsf                =   7.9488000000000E+06
(PID.TID 0000.0001) %MON dynstat_eta_max              =   8.7021530415076E-01
(PID.TID 0000.0001) %MON dynstat_eta_min              =  -1.8875920851200E+00
(PID.TID 0000.0001) %MON dynstat_eta_mean             =  -5.8079421860056E-03
(PID.TID 0000.0001) %MON dynstat_eta_sd               =   6.1848036013463E-01
(PID.TID 0000.0001) %MON dynstat_eta_del2             =   2.5428444533445E-03
(PID.TID 0000.0001) %MON dynstat_uvel_max             =   1.4173022918173E-01
(PID.TID 0000.0001) %MON dynstat_uvel_min             =  -1.3612257430477E-01
(PID.TID 0000.0001) %MON dynstat_uvel_mean            =   2.4327039993122E-03
(PID.TID 0000.0001) %MON dynstat_uvel_sd              =   1.4165319420660E-02
(PID.TID 0000.0001) %MON dynstat_uvel_del2            =   9.3232729859483E-05
(PID.TID 0000.0001) %MON dynstat_vvel_max             =   1.3421212953073E-01
(PID.TID 0000.0001) %MON dynstat_vvel_min             =  -8.6456041279371E-02
(PID.TID 0000.0001) %MON dynstat_vvel_mean            =   5.0039411300032E-05
(PID.TID 0000.0001) %MON dynstat_vvel_sd              =   7.9753647627730E-03
(PID.TID 0000.0001) %MON dynstat_vvel_del2            =   7.5639605106678E-05
(PID.TID 0000.0001) %MON dynstat_wvel_max             =   1.3282324362466E-04
(PID.TID 0000.0001) %MON dynstat_wvel_min             =  -5.8882679608468E-05
(PID.TID 0000.0001) %MON dynstat_wvel_mean            =  -2.7111442848030E-23
(PID.TID 0000.0001) %MON dynstat_wvel_sd              =   9.5116452416822E-06
(PID.TID 0000.0001) %MON dynstat_wvel_del2            =   9.3565070799249E-08
(PID.TID 0000.0001) %MON dynstat_theta_max            =   3.1241152054221E+01
(PID.TID 0000.0001) %MON dynstat_theta_min            =  -1.9310965514997E+00
(PID.TID 0000.0001) %MON dynstat_theta_mean           =   3.6343086145912E+00
(PID.TID 0000.0001) %MON dynstat_theta_sd             =   4.4289320990816E+00
(PID.TID 0000.0001) %MON dynstat_theta_del2           =   4.8192637999953E-03
(PID.TID 0000.0001) %MON dynstat_salt_max             =   3.7477104834893E+01
(PID.TID 0000.0001) %MON dynstat_salt_min             =   2.9958726185337E+01
(PID.TID 0000.0001) %MON dynstat_salt_mean            =   3.4727998987218E+01
(PID.TID 0000.0001) %MON dynstat_salt_sd              =   2.9665760144549E-01
(PID.TID 0000.0001) %MON dynstat_salt_del2            =   9.9885965591060E-04
(PID.TID 0000.0001) %MON dynstat_sst_max              =   3.1241152054221E+01
(PID.TID 0000.0001) %MON dynstat_sst_min              =  -1.9310965514997E+00
(PID.TID 0000.0001) %MON dynstat_sst_mean             =   1.9052732675150E+01
(PID.TID 0000.0001) %MON dynstat_sst_sd               =   9.2688545113074E+00
(PID.TID 0000.0001) %MON dynstat_sst_del2             =   2.9346555039716E-02
(PID.TID 0000.0001) %MON dynstat_sss_max              =   3.7477104834893E+01
(PID.TID 0000.0001) %MON dynstat_sss_min              =   2.9958726185337E+01
(PID.TID 0000.0001) %MON dynstat_sss_mean             =   3.4846753182059E+01
(PID.TID 0000.0001) %MON dynstat_sss_sd               =   9.9166380322617E-01
(PID.TID 0000.0001) %MON dynstat_sss_del2             =   8.3287704017192E-03
(PID.TID 0000.0001) %MON forcing_qnet_max             =   1.9922393391927E+02
(PID.TID 0000.0001) %MON forcing_qnet_min             =  -1.5700764973958E+02
(PID.TID 0000.0001) %MON forcing_qnet_mean            =  -9.1248312663050E-01
(PID.TID 0000.0001) %MON forcing_qnet_sd              =   3.9520951895878E+01
(PID.TID 0000.0001) %MON forcing_qnet_del2            =   7.8352758501647E-01
(PID.TID 0000.0001) %MON forcing_qsw_max              =   0.0000000000000E+00
(PID.TID 0000.0001) %MON forcing_qsw_min              =   0.0000000000000E+00
(PID.TID 0000.0001) %MON forcing_qsw_mean             =   0.0000000000000E+00
(PID.TID 0000.0001) %MON forcing_qsw_sd               =   0.0000000000000E+00
(PID.TID 0000.0001) %MON forcing_qsw_del2             =   0.0000000000000E+00
(PID.TID 0000.0001) %MON forcing_empmr_max            =   6.7570085586037E-05
(PID.TID 0000.0001) %MON forcing_empmr_min            =  -8.3501954861731E-05
(PID.TID 0000.0001) %MON forcing_empmr_mean           =   1.9158521643765E-07
(PID.TID 0000.0001) %MON forcing_empmr_sd             =   2.5545939064587E-05
(PID.TID 0000.0001) %MON forcing_empmr_del2           =   3.6438848805785E-07
(PID.TID 0000.0001) %MON forcing_fu_max               =   3.4739760756493E-01
(PID.TID 0000.0001) %MON forcing_fu_min               =  -4.0348557233810E-01
(PID.TID 0000.0001) %MON forcing_fu_mean              =   1.8421655749463E-02
(PID.TID 0000.0001) %MON forcing_fu_sd                =   1.0042548414451E-01
(PID.TID 0000.0001) %MON forcing_fu_del2              =   7.7738003749810E-04
(PID.TID 0000.0001) %MON forcing_fv_max               =   1.8176432649295E-01
(PID.TID 0000.0001) %MON forcing_fv_min               =  -1.4326689740022E-01
(PID.TID 0000.0001) %MON forcing_fv_mean              =  -6.9459486820761E-03
(PID.TID 0000.0001) %MON forcing_fv_sd                =   3.8697920486892E-02
(PID.TID 0000.0001) %MON forcing_fv_del2              =   4.1531073929018E-04
(PID.TID 0000.0001) %MON trAdv_CFL_u_max              =   4.4570650042485E-02
(PID.TID 0000.0001) %MON trAdv_CFL_v_max              =   2.6226287214168E-02
(PID.TID 0000.0001) %MON trAdv_CFL_w_max              =   2.9877700448574E-02
(PID.TID 0000.0001) %MON advcfl_uvel_max              =   4.4576700102981E-02
(PID.TID 0000.0001) %MON advcfl_vvel_max              =   2.6075264264050E-02
(PID.TID 0000.0001) %MON advcfl_wvel_max              =   3.0632729888450E-02
(PID.TID 0000.0001) %MON advcfl_W_hf_max              =   3.2885136497895E-02
(PID.TID 0000.0001) %MON pe_b_mean                    =   4.8952099491667E-04
(PID.TID 0000.0001) %MON ke_max                       =   1.1807782100147E-02
(PID.TID 0000.0001) %MON ke_mean                      =   1.2240668575216E-04
(PID.TID 0000.0001) %MON ke_vol                       =   1.3226782436723E+18
(PID.TID 0000.0001) %MON vort_r_min                   =  -3.5372187070338E-07
(PID.TID 0000.0001) %MON vort_r_max                   =   4.0619098343752E-07
(PID.TID 0000.0001) %MON vort_a_mean                  =  -2.5274807163914E-05
(PID.TID 0000.0001) %MON vort_a_sd                    =   7.3604661872245E-05
(PID.TID 0000.0001) %MON vort_p_mean                  =  -3.1845655505222E-05
(PID.TID 0000.0001) %MON vort_p_sd                    =   1.3162482668035E-04
(PID.TID 0000.0001) %MON surfExpan_theta_mean         =  -1.3023001614933E-07
(PID.TID 0000.0001) %MON surfExpan_salt_mean          =   6.5544239981491E-08
(PID.TID 0000.0001) // =======================================================
(PID.TID 0000.0001) // End MONITOR dynamic field statistics
(PID.TID 0000.0001) // =======================================================
 EXTERNAL_FIELDS_LOAD,        92 : iP,iLd,i0,i1=    3    4    3    4 ; Wght=  0.4333333333  0.5666666667
 EXTERNAL_FIELDS_LOAD: (fu0,1),fu,fv= -2.7199E-02 -3.7252E-02 -3.2896E-02 -2.0206E-02
 EXTERNAL_FIELDS_LOAD: SST,SSS,Q,E-P= -5.9668E-02  3.4573E+01  1.5233E+02  8.3375E-06
DEBUG_STATS_RL:          Uvel (THERMODYNAMICS)  min= -1.36122574304766E-01
DEBUG_STATS_RL:          Uvel (THERMODYNAMICS)  max=  1.41730229181729E-01
DEBUG_STATS_RL:          Uvel (THERMODYNAMICS) mean=  5.94089536610053E-03
DEBUG_STATS_RL:          Uvel (THERMODYNAMICS) S.D.=  2.21165564288340E-02
DEBUG_STATS_RL:          Vvel (THERMODYNAMICS)  min= -8.64560412793714E-02
DEBUG_STATS_RL:          Vvel (THERMODYNAMICS)  max=  1.34212129530733E-01
DEBUG_STATS_RL:          Vvel (THERMODYNAMICS) mean=  9.06900425262529E-04
DEBUG_STATS_RL:          Vvel (THERMODYNAMICS) S.D.=  1.29193985515502E-02
DEBUG_STATS_RL:          Wvel (THERMODYNAMICS)  min= -5.88826796084678E-05
DEBUG_STATS_RL:          Wvel (THERMODYNAMICS)  max=  1.32823243624663E-04
DEBUG_STATS_RL:          Wvel (THERMODYNAMICS) mean= -3.36196468683590E-08
DEBUG_STATS_RL:          Wvel (THERMODYNAMICS) S.D.=  8.38540781164986E-06
DEBUG_STATS_RL:         Theta (THERMODYNAMICS)  min= -1.92989488611401E+00
DEBUG_STATS_RL:         Theta (THERMODYNAMICS)  max=  3.12544563694357E+01
DEBUG_STATS_RL:         Theta (THERMODYNAMICS) mean=  3.23004199901489E+00
DEBUG_STATS_RL:         Theta (THERMODYNAMICS) S.D.=  5.88908341885837E+00
DEBUG_STATS_RL:          Salt (THERMODYNAMICS)  min=  9.99999999999996E-03
DEBUG_STATS_RL:          Salt (THERMODYNAMICS)  max=  3.74778300017308E+01
DEBUG_STATS_RL:          Salt (THERMODYNAMICS) mean=  1.88547290806689E+01
DEBUG_STATS_RL:          Salt (THERMODYNAMICS) S.D.=  1.73002912329281E+01
DEBUG_STATS_RL:         GtNm1 (THERMODYNAMICS)  min= -3.05998311853885E-06
DEBUG_STATS_RL:         GtNm1 (THERMODYNAMICS)  max=  3.69725688993403E-06
DEBUG_STATS_RL:         GtNm1 (THERMODYNAMICS) mean= -1.98791419466348E-09
DEBUG_STATS_RL:         GtNm1 (THERMODYNAMICS) S.D.=  1.34416389799705E-07
DEBUG_STATS_RL:         GsNm1 (THERMODYNAMICS)  min= -4.10855797311603E-07
DEBUG_STATS_RL:         GsNm1 (THERMODYNAMICS)  max=  4.54609008667513E-07
DEBUG_STATS_RL:         GsNm1 (THERMODYNAMICS) mean= -2.41879368450631E-10
DEBUG_STATS_RL:         GsNm1 (THERMODYNAMICS) S.D.=  1.37570930534470E-08
DEBUG_STATS_RL:                EtaN (DYNAMICS)  min= -1.88759208512002E+00
DEBUG_STATS_RL:                EtaN (DYNAMICS)  max=  8.70215304150758E-01
DEBUG_STATS_RL:                EtaN (DYNAMICS) mean= -1.89495960614451E-01
DEBUG_STATS_RL:                EtaN (DYNAMICS) S.D.=  7.21810941771835E-01
DEBUG_STATS_RL:                Uvel (DYNAMICS)  min= -1.36122574304766E-01
DEBUG_STATS_RL:                Uvel (DYNAMICS)  max=  1.41730229181729E-01
DEBUG_STATS_RL:                Uvel (DYNAMICS) mean=  5.94089536610053E-03
DEBUG_STATS_RL:                Uvel (DYNAMICS) S.D.=  2.21165564288340E-02
DEBUG_STATS_RL:                Vvel (DYNAMICS)  min= -8.64560412793714E-02
DEBUG_STATS_RL:                Vvel (DYNAMICS)  max=  1.34212129530733E-01
DEBUG_STATS_RL:                Vvel (DYNAMICS) mean=  9.06900425262529E-04
DEBUG_STATS_RL:                Vvel (DYNAMICS) S.D.=  1.29193985515502E-02
DEBUG_STATS_RL:                Wvel (DYNAMICS)  min= -5.88826796084678E-05
DEBUG_STATS_RL:                Wvel (DYNAMICS)  max=  1.32823243624663E-04
DEBUG_STATS_RL:                Wvel (DYNAMICS) mean= -3.36196468683590E-08
DEBUG_STATS_RL:                Wvel (DYNAMICS) S.D.=  8.38540781164986E-06
DEBUG_STATS_RL:               Theta (DYNAMICS)  min= -1.92989488611401E+00
DEBUG_STATS_RL:               Theta (DYNAMICS)  max=  3.12544563694357E+01
DEBUG_STATS_RL:               Theta (DYNAMICS) mean=  3.23004199901489E+00
DEBUG_STATS_RL:               Theta (DYNAMICS) S.D.=  5.88908341885837E+00
DEBUG_STATS_RL:                Salt (DYNAMICS)  min=  9.99999999999996E-03
DEBUG_STATS_RL:                Salt (DYNAMICS)  max=  3.74778300017308E+01
DEBUG_STATS_RL:                Salt (DYNAMICS) mean=  1.88547290806689E+01
DEBUG_STATS_RL:                Salt (DYNAMICS) S.D.=  1.73002912329281E+01
DEBUG_STATS_RL:                  Gu (DYNAMICS)  min= -1.35131122430476E-01
DEBUG_STATS_RL:                  Gu (DYNAMICS)  max=  1.34395121493578E-01
DEBUG_STATS_RL:                  Gu (DYNAMICS) mean=  5.89331884732167E-03
DEBUG_STATS_RL:                  Gu (DYNAMICS) S.D.=  2.25195468139851E-02
DEBUG_STATS_RL:                  Gv (DYNAMICS)  min= -8.41854051662542E-02
DEBUG_STATS_RL:                  Gv (DYNAMICS)  max=  1.34223222351976E-01
DEBUG_STATS_RL:                  Gv (DYNAMICS) mean=  3.49346513659296E-03
DEBUG_STATS_RL:                  Gv (DYNAMICS) S.D.=  1.44852045338031E-02
DEBUG_STATS_RL:               GuNm1 (DYNAMICS)  min= -9.62714356086439E-06
DEBUG_STATS_RL:               GuNm1 (DYNAMICS)  max=  1.00498574387771E-05
DEBUG_STATS_RL:               GuNm1 (DYNAMICS) mean=  1.51951449490899E-08
DEBUG_STATS_RL:               GuNm1 (DYNAMICS) S.D.=  1.22739524282069E-06
DEBUG_STATS_RL:               GvNm1 (DYNAMICS)  min= -9.28907363640559E-06
DEBUG_STATS_RL:               GvNm1 (DYNAMICS)  max=  1.50997720393491E-05
DEBUG_STATS_RL:               GvNm1 (DYNAMICS) mean=  7.40087714741459E-07
DEBUG_STATS_RL:               GvNm1 (DYNAMICS) S.D.=  2.60397844394952E-06
DEBUG_STATS_RL:               GtNm1 (DYNAMICS)  min= -3.05998311853885E-06
DEBUG_STATS_RL:               GtNm1 (DYNAMICS)  max=  3.69725688993403E-06
DEBUG_STATS_RL:               GtNm1 (DYNAMICS) mean= -1.98791419466348E-09
DEBUG_STATS_RL:               GtNm1 (DYNAMICS) S.D.=  1.34416389799705E-07
DEBUG_STATS_RL:               GsNm1 (DYNAMICS)  min= -4.10855797311603E-07
DEBUG_STATS_RL:               GsNm1 (DYNAMICS)  max=  4.54609008667513E-07
DEBUG_STATS_RL:               GsNm1 (DYNAMICS) mean= -2.41879368450631E-10
DEBUG_STATS_RL:               GsNm1 (DYNAMICS) S.D.=  1.37570930534470E-08
DEBUG_STATS_RL:    cg2d_b (SOLVE_FOR_PRESSURE)  min= -2.87060203245160E+04
DEBUG_STATS_RL:    cg2d_b (SOLVE_FOR_PRESSURE)  max=  3.09659299262875E+04
DEBUG_STATS_RL:    cg2d_b (SOLVE_FOR_PRESSURE) mean=  5.58002260337548E+00
DEBUG_STATS_RL:    cg2d_b (SOLVE_FOR_PRESSURE) S.D.=  4.00964412756779E+03
 cg2d: Sum(rhs),rhsMax =   4.17160161427925E-01  2.03392518653553E+00
(PID.TID 0000.0001)  cg2d: iter=     1 ; resid.=  5.82865537156693E-02
(PID.TID 0000.0001)  cg2d: iter=     2 ; resid.=  4.02921925318969E-02
(PID.TID 0000.0001)  cg2d: iter=     3 ; resid.=  3.78032217147357E-02
(PID.TID 0000.0001)  cg2d: iter=     4 ; resid.=  3.62053693070892E-02
(PID.TID 0000.0001)  cg2d: iter=     5 ; resid.=  2.96679543741834E-02
(PID.TID 0000.0001)  cg2d: iter=     6 ; resid.=  2.94946717728648E-02
(PID.TID 0000.0001)  cg2d: iter=     7 ; resid.=  2.44130749520131E-02
(PID.TID 0000.0001)  cg2d: iter=     8 ; resid.=  1.98147529175126E-02
(PID.TID 0000.0001)  cg2d: iter=     9 ; resid.=  1.54217118615958E-02
(PID.TID 0000.0001)  cg2d: iter=    10 ; resid.=  1.19045358248585E-02
(PID.TID 0000.0001)  cg2d: iter=    11 ; resid.=  9.82375975185036E-03
(PID.TID 0000.0001)  cg2d: iter=    12 ; resid.=  8.05293851845785E-03
(PID.TID 0000.0001)  cg2d: iter=    13 ; resid.=  6.37894980913607E-03
(PID.TID 0000.0001)  cg2d: iter=    14 ; resid.=  5.30836775120839E-03
(PID.TID 0000.0001)  cg2d: iter=    15 ; resid.=  4.37305958377611E-03
(PID.TID 0000.0001)  cg2d: iter=    16 ; resid.=  3.71654948005617E-03
(PID.TID 0000.0001)  cg2d: iter=    17 ; resid.=  3.53568851830824E-03
(PID.TID 0000.0001)  cg2d: iter=    18 ; resid.=  3.07023268959347E-03
(PID.TID 0000.0001)  cg2d: iter=    19 ; resid.=  2.63974522743402E-03
(PID.TID 0000.0001)  cg2d: iter=    20 ; resid.=  2.13664628009855E-03
(PID.TID 0000.0001)  cg2d: iter=    21 ; resid.=  1.74412984477832E-03
(PID.TID 0000.0001)  cg2d: iter=    22 ; resid.=  1.54017319407669E-03
(PID.TID 0000.0001)  cg2d: iter=    23 ; resid.=  1.21597587897238E-03
(PID.TID 0000.0001)  cg2d: iter=    24 ; resid.=  1.04177802096962E-03
(PID.TID 0000.0001)  cg2d: iter=    25 ; resid.=  8.28988041891042E-04
(PID.TID 0000.0001)  cg2d: iter=    26 ; resid.=  6.33502668535682E-04
(PID.TID 0000.0001)  cg2d: iter=    27 ; resid.=  5.23078629967584E-04
(PID.TID 0000.0001)  cg2d: iter=    28 ; resid.=  4.33887605943944E-04
(PID.TID 0000.0001)  cg2d: iter=    29 ; resid.=  3.60669735409968E-04
(PID.TID 0000.0001)  cg2d: iter=    30 ; resid.=  3.03329468388605E-04
(PID.TID 0000.0001)  cg2d: iter=    31 ; resid.=  2.70655091693595E-04
(PID.TID 0000.0001)  cg2d: iter=    32 ; resid.=  2.13797459482914E-04
(PID.TID 0000.0001)  cg2d: iter=    33 ; resid.=  1.61851032962752E-04
(PID.TID 0000.0001)  cg2d: iter=    34 ; resid.=  1.46462199419543E-04
(PID.TID 0000.0001)  cg2d: iter=    35 ; resid.=  1.23692729665635E-04
(PID.TID 0000.0001)  cg2d: iter=    36 ; resid.=  1.01241873081182E-04
(PID.TID 0000.0001)  cg2d: iter=    37 ; resid.=  9.13252671478332E-05
(PID.TID 0000.0001)  cg2d: iter=    38 ; resid.=  7.63543484893344E-05
(PID.TID 0000.0001)  cg2d: iter=    39 ; resid.=  6.55163400045217E-05
(PID.TID 0000.0001)  cg2d: iter=    40 ; resid.=  5.55450679320353E-05
(PID.TID 0000.0001)  cg2d: iter=    41 ; resid.=  4.72345965023859E-05
(PID.TID 0000.0001)  cg2d: iter=    42 ; resid.=  4.15431669272307E-05
(PID.TID 0000.0001)  cg2d: iter=    43 ; resid.=  3.74041365137810E-05
(PID.TID 0000.0001)  cg2d: iter=    44 ; resid.=  3.02100599022046E-05
(PID.TID 0000.0001)  cg2d: iter=    45 ; resid.=  2.43612245303281E-05
(PID.TID 0000.0001)  cg2d: iter=    46 ; resid.=  1.87178283988086E-05
(PID.TID 0000.0001)  cg2d: iter=    47 ; resid.=  1.46515684069223E-05
(PID.TID 0000.0001)  cg2d: iter=    48 ; resid.=  1.30867809753077E-05
(PID.TID 0000.0001)  cg2d: iter=    49 ; resid.=  1.17565096186145E-05
(PID.TID 0000.0001)  cg2d: iter=    50 ; resid.=  9.41628556844074E-06
(PID.TID 0000.0001)  cg2d: iter=    51 ; resid.=  7.85414167521099E-06
(PID.TID 0000.0001)  cg2d: iter=    52 ; resid.=  6.63545482607988E-06
(PID.TID 0000.0001)  cg2d: iter=    53 ; resid.=  5.70406110102460E-06
(PID.TID 0000.0001)  cg2d: iter=    54 ; resid.=  4.64998720263663E-06
(PID.TID 0000.0001)  cg2d: iter=    55 ; resid.=  3.76740352734163E-06
(PID.TID 0000.0001)  cg2d: iter=    56 ; resid.=  3.29960744005045E-06
(PID.TID 0000.0001)  cg2d: iter=    57 ; resid.=  2.81157318963803E-06
(PID.TID 0000.0001)  cg2d: iter=    58 ; resid.=  2.12998339188415E-06
(PID.TID 0000.0001)  cg2d: iter=    59 ; resid.=  1.61860113913434E-06
(PID.TID 0000.0001)  cg2d: iter=    60 ; resid.=  1.39189750501887E-06
(PID.TID 0000.0001)  cg2d: iter=    61 ; resid.=  1.15860444314532E-06
(PID.TID 0000.0001)  cg2d: iter=    62 ; resid.=  9.76893136187851E-07
(PID.TID 0000.0001)  cg2d: iter=    63 ; resid.=  8.59397412127930E-07
(PID.TID 0000.0001)  cg2d: iter=    64 ; resid.=  7.10846026011587E-07
(PID.TID 0000.0001)  cg2d: iter=    65 ; resid.=  5.72209157717950E-07
(PID.TID 0000.0001)  cg2d: iter=    66 ; resid.=  4.52104388858628E-07
(PID.TID 0000.0001)  cg2d: iter=    67 ; resid.=  3.70639063978939E-07
(PID.TID 0000.0001)  cg2d: iter=    68 ; resid.=  2.91645544135019E-07
(PID.TID 0000.0001)  cg2d: iter=    69 ; resid.=  2.16039623781860E-07
(PID.TID 0000.0001)  cg2d: iter=    70 ; resid.=  1.63667213755617E-07
(PID.TID 0000.0001)  cg2d: iter=    71 ; resid.=  1.42951663396234E-07
(PID.TID 0000.0001)  cg2d: iter=    72 ; resid.=  1.26367401440025E-07
(PID.TID 0000.0001)  cg2d: iter=    73 ; resid.=  1.18225971532483E-07
(PID.TID 0000.0001)  cg2d: iter=    74 ; resid.=  1.07017066631614E-07
(PID.TID 0000.0001)  cg2d: iter=    75 ; resid.=  8.45233595627077E-08
(PID.TID 0000.0001)  cg2d: iter=    76 ; resid.=  6.59852367021971E-08
(PID.TID 0000.0001)  cg2d: iter=    77 ; resid.=  5.60408443352172E-08
(PID.TID 0000.0001)  cg2d: iter=    78 ; resid.=  4.81993256132361E-08
(PID.TID 0000.0001)  cg2d: iter=    79 ; resid.=  3.98512933271268E-08
(PID.TID 0000.0001)  cg2d: iter=    80 ; resid.=  3.25367103704587E-08
(PID.TID 0000.0001)  cg2d: iter=    81 ; resid.=  2.56788990360622E-08
(PID.TID 0000.0001)  cg2d: iter=    82 ; resid.=  1.86365904364772E-08
(PID.TID 0000.0001)  cg2d: iter=    83 ; resid.=  1.36457014132063E-08
(PID.TID 0000.0001)  cg2d: iter=    84 ; resid.=  9.91895653176945E-09
(PID.TID 0000.0001)  cg2d: iter=    85 ; resid.=  7.43226281642090E-09
(PID.TID 0000.0001)  cg2d: iter=    86 ; resid.=  5.77001585010494E-09
(PID.TID 0000.0001)  cg2d: iter=    87 ; resid.=  4.72037797829571E-09
(PID.TID 0000.0001)  cg2d: iter=    88 ; resid.=  3.73555523571157E-09
(PID.TID 0000.0001)  cg2d: iter=    89 ; resid.=  3.12506917792807E-09
(PID.TID 0000.0001)  cg2d: iter=    90 ; resid.=  2.57130995569903E-09
(PID.TID 0000.0001)  cg2d: iter=    91 ; resid.=  1.97599047400071E-09
(PID.TID 0000.0001)  cg2d: iter=    92 ; resid.=  1.47067663287537E-09
(PID.TID 0000.0001)  cg2d: iter=    93 ; resid.=  1.06100762871602E-09
(PID.TID 0000.0001)  cg2d: iter=    94 ; resid.=  8.29071817674236E-10
(PID.TID 0000.0001)  cg2d: iter=    95 ; resid.=  7.10695321517007E-10
(PID.TID 0000.0001)  cg2d: iter=    96 ; resid.=  5.70040954361427E-10
(PID.TID 0000.0001)  cg2d: iter=    97 ; resid.=  4.24053668233491E-10
(PID.TID 0000.0001)  cg2d: iter=    98 ; resid.=  3.31559839524197E-10
(PID.TID 0000.0001)  cg2d: iter=    99 ; resid.=  2.80261086957107E-10
(PID.TID 0000.0001)  cg2d: iter=   100 ; resid.=  2.58881584957797E-10
(PID.TID 0000.0001)  cg2d: iter=   101 ; resid.=  2.19461365800151E-10
(PID.TID 0000.0001)  cg2d: iter=   102 ; resid.=  1.75736711353667E-10
(PID.TID 0000.0001)  cg2d: iter=   103 ; resid.=  1.44353552805473E-10
(PID.TID 0000.0001)  cg2d: iter=   104 ; resid.=  1.18865317724906E-10
(PID.TID 0000.0001)  cg2d: iter=   105 ; resid.=  1.00889999294384E-10
(PID.TID 0000.0001)  cg2d: iter=   106 ; resid.=  7.36591330731314E-11
(PID.TID 0000.0001)  cg2d: iter=   107 ; resid.=  5.73360316152479E-11
(PID.TID 0000.0001)  cg2d: iter=   108 ; resid.=  4.22433228628763E-11
(PID.TID 0000.0001)  cg2d: iter=   109 ; resid.=  3.07050228339299E-11
(PID.TID 0000.0001)  cg2d: iter=   110 ; resid.=  2.41216847943172E-11
(PID.TID 0000.0001)  cg2d: iter=   111 ; resid.=  2.05645779784691E-11
(PID.TID 0000.0001)  cg2d: iter=   112 ; resid.=  1.62738874170865E-11
(PID.TID 0000.0001)  cg2d: iter=   113 ; resid.=  1.15014204491239E-11
(PID.TID 0000.0001)  cg2d: iter=   114 ; resid.=  9.03523515794532E-12
(PID.TID 0000.0001)  cg2d: iter=   115 ; resid.=  7.24148327646519E-12
(PID.TID 0000.0001)  cg2d: iter=   116 ; resid.=  5.20704448325668E-12
(PID.TID 0000.0001)  cg2d: iter=   117 ; resid.=  4.00305207102442E-12
(PID.TID 0000.0001)  cg2d: iter=   118 ; resid.=  3.15069842624421E-12
(PID.TID 0000.0001)  cg2d: iter=   119 ; resid.=  2.19317154913488E-12
(PID.TID 0000.0001)  cg2d: iter=   120 ; resid.=  1.66138085260883E-12
(PID.TID 0000.0001)  cg2d: iter=   121 ; resid.=  1.32031372722837E-12
(PID.TID 0000.0001)  cg2d: iter=   122 ; resid.=  9.27070578136889E-13
(PID.TID 0000.0001)  cg2d: iter=   123 ; resid.=  6.81730970598096E-13
(PID.TID 0000.0001)  cg2d: iter=   124 ; resid.=  5.21102343345803E-13
(PID.TID 0000.0001)  cg2d: iter=   125 ; resid.=  3.97884725127450E-13
(PID.TID 0000.0001)  cg2d: iter=   126 ; resid.=  3.02064329242110E-13
(PID.TID 0000.0001)  cg2d: iter=   127 ; resid.=  2.06866824581236E-13
(PID.TID 0000.0001)  cg2d: iter=   128 ; resid.=  1.55823592543999E-13
(PID.TID 0000.0001)  cg2d: iter=   129 ; resid.=  1.11259399294106E-13
(PID.TID 0000.0001)  cg2d: iter=   130 ; resid.=  8.16547234036238E-14
DEBUG_STATS_RL:    cg2d_x (SOLVE_FOR_PRESSURE)  min= -1.83577082473339E+01
DEBUG_STATS_RL:    cg2d_x (SOLVE_FOR_PRESSURE)  max=  8.43573888589875E+00
DEBUG_STATS_RL:    cg2d_x (SOLVE_FOR_PRESSURE) mean= -1.85199052904222E+00
DEBUG_STATS_RL:    cg2d_x (SOLVE_FOR_PRESSURE) S.D.=  7.06012792774036E+00
(PID.TID 0000.0001)      cg2d_init_res =   1.81100965229668E-01
(PID.TID 0000.0001)      cg2d_iters(min,last) =      -1     130
(PID.TID 0000.0001)      cg2d_last_res =   8.16547234036238E-14
(PID.TID 0000.0001) // =======================================================
(PID.TID 0000.0001) // Begin MONITOR dynamic field statistics
(PID.TID 0000.0001) // =======================================================
(PID.TID 0000.0001) %MON time_tsnumber                =                    93
(PID.TID 0000.0001) %MON time_secondsf                =   8.0352000000000E+06
(PID.TID 0000.0001) %MON dynstat_eta_max              =   8.5991222078475E-01
(PID.TID 0000.0001) %MON dynstat_eta_min              =  -1.8713260190962E+00
(PID.TID 0000.0001) %MON dynstat_eta_mean             =  -5.8220616866617E-03
(PID.TID 0000.0001) %MON dynstat_eta_sd               =   6.1607889208123E-01
(PID.TID 0000.0001) %MON dynstat_eta_del2             =   2.5444944393651E-03
(PID.TID 0000.0001) %MON dynstat_uvel_max             =   1.3802976106468E-01
(PID.TID 0000.0001) %MON dynstat_uvel_min             =  -1.3595681061843E-01
(PID.TID 0000.0001) %MON dynstat_uvel_mean            =   2.4314303156192E-03
(PID.TID 0000.0001) %MON dynstat_uvel_sd              =   1.4145673456739E-02
(PID.TID 0000.0001) %MON dynstat_uvel_del2            =   9.3289937307134E-05
(PID.TID 0000.0001) %MON dynstat_vvel_max             =   1.3289504675024E-01
(PID.TID 0000.0001) %MON dynstat_vvel_min             =  -8.6912871906878E-02
(PID.TID 0000.0001) %MON dynstat_vvel_mean            =   4.9188318614787E-05
(PID.TID 0000.0001) %MON dynstat_vvel_sd              =   7.9415568400282E-03
(PID.TID 0000.0001) %MON dynstat_vvel_del2            =   7.5597421614700E-05
(PID.TID 0000.0001) %MON dynstat_wvel_max             =   1.2849819002464E-04
(PID.TID 0000.0001) %MON dynstat_wvel_min             =  -6.0212732099838E-05
(PID.TID 0000.0001) %MON dynstat_wvel_mean            =  -1.1135876059830E-22
(PID.TID 0000.0001) %MON dynstat_wvel_sd              =   9.4204780758049E-06
(PID.TID 0000.0001) %MON dynstat_wvel_del2            =   9.2701260655249E-08
(PID.TID 0000.0001) %MON dynstat_theta_max            =   3.1254456369436E+01
(PID.TID 0000.0001) %MON dynstat_theta_min            =  -1.9298948861140E+00
(PID.TID 0000.0001) %MON dynstat_theta_mean           =   3.6343131329757E+00
(PID.TID 0000.0001) %MON dynstat_theta_sd             =   4.4289851136967E+00
(PID.TID 0000.0001) %MON dynstat_theta_del2           =   4.8162299943678E-03
(PID.TID 0000.0001) %MON dynstat_salt_max             =   3.7477830001731E+01
(PID.TID 0000.0001) %MON dynstat_salt_min             =   2.9962222277102E+01
(PID.TID 0000.0001) %MON dynstat_salt_mean            =   3.4727998008412E+01
(PID.TID 0000.0001) %MON dynstat_salt_sd              =   2.9666297651450E-01
(PID.TID 0000.0001) %MON dynstat_salt_del2            =   9.9911940154773E-04
(PID.TID 0000.0001) %MON dynstat_sst_max              =   3.1254456369436E+01
(PID.TID 0000.0001) %MON dynstat_sst_min              =  -1.9298948861140E+00
(PID.TID 0000.0001) %MON dynstat_sst_mean             =   1.9049783901164E+01
(PID.TID 0000.0001) %MON dynstat_sst_sd               =   9.2760157397682E+00
(PID.TID 0000.0001) %MON dynstat_sst_del2             =   2.9367490461508E-02
(PID.TID 0000.0001) %MON dynstat_sss_max              =   3.7477830001731E+01
(PID.TID 0000.0001) %MON dynstat_sss_min              =   2.9962222277102E+01
(PID.TID 0000.0001) %MON dynstat_sss_mean             =   3.4846565221973E+01
(PID.TID 0000.0001) %MON dynstat_sss_sd               =   9.9208661755374E-01
(PID.TID 0000.0001) %MON dynstat_sss_del2             =   8.3374966859637E-03
(PID.TID 0000.0001) %MON forcing_qnet_max             =   1.9451869913737E+02
(PID.TID 0000.0001) %MON forcing_qnet_min             =  -1.5657965342204E+02
(PID.TID 0000.0001) %MON forcing_qnet_mean            =  -5.1544669766086E-01
(PID.TID 0000.0001) %MON forcing_qnet_sd              =   3.9728111557903E+01
(PID.TID 0000.0001) %MON forcing_qnet_del2            =   7.8346921016286E-01
(PID.TID 0000.0001) %MON forcing_qsw_max              =   0.0000000000000E+00
(PID.TID 0000.0001) %MON forcing_qsw_min              =   0.0000000000000E+00
(PID.TID 0000.0001) %MON forcing_qsw_mean             =   0.0000000000000E+00
(PID.TID 0000.0001) %MON forcing_qsw_sd               =   0.0000000000000E+00
(PID.TID 0000.0001) %MON forcing_qsw_del2             =   0.0000000000000E+00
(PID.TID 0000.0001) %MON forcing_empmr_max            =   6.7473914574142E-05
(PID.TID 0000.0001) %MON forcing_empmr_min            =  -8.3516800941652E-05
(PID.TID 0000.0001) %MON forcing_empmr_mean           =   1.6913985161008E-07
(PID.TID 0000.0001) %MON forcing_empmr_sd             =   2.5530162049708E-05
(PID.TID 0000.0001) %MON forcing_empmr_del2           =   3.6488800752658E-07
(PID.TID 0000.0001) %MON forcing_fu_max               =   3.4690555334091E-01
(PID.TID 0000.0001) %MON forcing_fu_min               =  -4.0441864430904E-01
(PID.TID 0000.0001) %MON forcing_fu_mean              =   1.8294463652530E-02
(PID.TID 0000.0001) %MON forcing_fu_sd                =   1.0052224849844E-01
(PID.TID 0000.0001) %MON forcing_fu_del2              =   7.7883912812643E-04
(PID.TID 0000.0001) %MON forcing_fv_max               =   1.8166832526525E-01
(PID.TID 0000.0001) %MON forcing_fv_min               =  -1.4357230017583E-01
(PID.TID 0000.0001) %MON forcing_fv_mean              =  -6.9094720097030E-03
(PID.TID 0000.0001) %MON forcing_fv_sd                =   3.8668513823794E-02
(PID.TID 0000.0001) %MON forcing_fv_del2              =   4.1497869888265E-04
(PID.TID 0000.0001) %MON trAdv_CFL_u_max              =   4.4585753949590E-02
(PID.TID 0000.0001) %MON trAdv_CFL_v_max              =   2.6032887934485E-02
(PID.TID 0000.0001) %MON trAdv_CFL_w_max              =   2.8669093357139E-02
(PID.TID 0000.0001) %MON advcfl_uvel_max              =   4.4782653710981E-02
(PID.TID 0000.0001) %MON advcfl_vvel_max              =   2.5819376203269E-02
(PID.TID 0000.0001) %MON advcfl_wvel_max              =   2.9579188387704E-02
(PID.TID 0000.0001) %MON advcfl_W_hf_max              =   3.1754128710329E-02
(PID.TID 0000.0001) %MON pe_b_mean                    =   4.8572744417659E-04
(PID.TID 0000.0001) %MON ke_max                       =   1.1373787275678E-02
(PID.TID 0000.0001) %MON ke_mean                      =   1.2190955980375E-04
(PID.TID 0000.0001) %MON ke_vol                       =   1.3226782436723E+18
(PID.TID 0000.0001) %MON vort_r_min                   =  -3.5603055531404E-07
(PID.TID 0000.0001) %MON vort_r_max                   =   4.0608167808381E-07
(PID.TID 0000.0001) %MON vort_a_mean                  =  -2.5274807162032E-05
(PID.TID 0000.0001) %MON vort_a_sd                    =   7.3604663310558E-05
(PID.TID 0000.0001) %MON vort_p_mean                  =  -3.1845655502850E-05
(PID.TID 0000.0001) %MON vort_p_sd                    =   1.3162483390780E-04
(PID.TID 0000.0001) %MON surfExpan_theta_mean         =  -9.8466693910160E-08
(PID.TID 0000.0001) %MON surfExpan_salt_mean          =   5.7302060845959E-08
(PID.TID 0000.0001) // =======================================================
(PID.TID 0000.0001) // End MONITOR dynamic field statistics
(PID.TID 0000.0001) // =======================================================
 EXTERNAL_FIELDS_LOAD,        93 : iP,iLd,i0,i1=    3    4    3    4 ; Wght=  0.4000000000  0.6000000000
 EXTERNAL_FIELDS_LOAD: (fu0,1),fu,fv= -2.7199E-02 -3.7252E-02 -3.3231E-02 -2.1361E-02
 EXTERNAL_FIELDS_LOAD: SST,SSS,Q,E-P= -5.2360E-02  3.4573E+01  1.4862E+02  8.2938E-06
DEBUG_STATS_RL:          Uvel (THERMODYNAMICS)  min= -1.35956810618430E-01
DEBUG_STATS_RL:          Uvel (THERMODYNAMICS)  max=  1.38029761064677E-01
DEBUG_STATS_RL:          Uvel (THERMODYNAMICS) mean=  5.92971952454159E-03
DEBUG_STATS_RL:          Uvel (THERMODYNAMICS) S.D.=  2.21401914165426E-02
DEBUG_STATS_RL:          Vvel (THERMODYNAMICS)  min= -8.69128719068782E-02
DEBUG_STATS_RL:          Vvel (THERMODYNAMICS)  max=  1.32895046750239E-01
DEBUG_STATS_RL:          Vvel (THERMODYNAMICS) mean=  8.88213923947508E-04
DEBUG_STATS_RL:          Vvel (THERMODYNAMICS) S.D.=  1.28677137422258E-02
DEBUG_STATS_RL:          Wvel (THERMODYNAMICS)  min= -6.02127320998377E-05
DEBUG_STATS_RL:          Wvel (THERMODYNAMICS)  max=  1.28498190024642E-04
DEBUG_STATS_RL:          Wvel (THERMODYNAMICS) mean= -3.53997439379131E-08
DEBUG_STATS_RL:          Wvel (THERMODYNAMICS) S.D.=  8.29587518938007E-06
DEBUG_STATS_RL:         Theta (THERMODYNAMICS)  min= -1.92866905524778E+00
DEBUG_STATS_RL:         Theta (THERMODYNAMICS)  max=  3.12670315652301E+01
DEBUG_STATS_RL:         Theta (THERMODYNAMICS) mean=  3.22988236752829E+00
DEBUG_STATS_RL:         Theta (THERMODYNAMICS) S.D.=  5.88908629383875E+00
DEBUG_STATS_RL:          Salt (THERMODYNAMICS)  min=  9.99999999999996E-03
DEBUG_STATS_RL:          Salt (THERMODYNAMICS)  max=  3.74785914065434E+01
DEBUG_STATS_RL:          Salt (THERMODYNAMICS) mean=  1.88547209431093E+01
DEBUG_STATS_RL:          Salt (THERMODYNAMICS) S.D.=  1.73002845848363E+01
DEBUG_STATS_RL:         GtNm1 (THERMODYNAMICS)  min= -2.97429843416121E-06
DEBUG_STATS_RL:         GtNm1 (THERMODYNAMICS)  max=  1.93212613350646E-06
DEBUG_STATS_RL:         GtNm1 (THERMODYNAMICS) mean= -2.19049516605019E-09
DEBUG_STATS_RL:         GtNm1 (THERMODYNAMICS) S.D.=  1.30818815894537E-07
DEBUG_STATS_RL:         GsNm1 (THERMODYNAMICS)  min= -6.57934339034724E-07
DEBUG_STATS_RL:         GsNm1 (THERMODYNAMICS)  max=  4.44292067229131E-07
DEBUG_STATS_RL:         GsNm1 (THERMODYNAMICS) mean= -2.49701574397597E-10
DEBUG_STATS_RL:         GsNm1 (THERMODYNAMICS) S.D.=  1.35132391537689E-08
DEBUG_STATS_RL:                EtaN (DYNAMICS)  min= -1.87132601909624E+00
DEBUG_STATS_RL:                EtaN (DYNAMICS)  max=  8.59912220784755E-01
DEBUG_STATS_RL:                EtaN (DYNAMICS) mean= -1.88785986650584E-01
DEBUG_STATS_RL:                EtaN (DYNAMICS) S.D.=  7.19686842786994E-01
DEBUG_STATS_RL:                Uvel (DYNAMICS)  min= -1.35956810618430E-01
DEBUG_STATS_RL:                Uvel (DYNAMICS)  max=  1.38029761064677E-01
DEBUG_STATS_RL:                Uvel (DYNAMICS) mean=  5.92971952454159E-03
DEBUG_STATS_RL:                Uvel (DYNAMICS) S.D.=  2.21401914165426E-02
DEBUG_STATS_RL:                Vvel (DYNAMICS)  min= -8.69128719068782E-02
DEBUG_STATS_RL:                Vvel (DYNAMICS)  max=  1.32895046750239E-01
DEBUG_STATS_RL:                Vvel (DYNAMICS) mean=  8.88213923947508E-04
DEBUG_STATS_RL:                Vvel (DYNAMICS) S.D.=  1.28677137422258E-02
DEBUG_STATS_RL:                Wvel (DYNAMICS)  min= -6.02127320998377E-05
DEBUG_STATS_RL:                Wvel (DYNAMICS)  max=  1.28498190024642E-04
DEBUG_STATS_RL:                Wvel (DYNAMICS) mean= -3.53997439379131E-08
DEBUG_STATS_RL:                Wvel (DYNAMICS) S.D.=  8.29587518938007E-06
DEBUG_STATS_RL:               Theta (DYNAMICS)  min= -1.92866905524778E+00
DEBUG_STATS_RL:               Theta (DYNAMICS)  max=  3.12670315652301E+01
DEBUG_STATS_RL:               Theta (DYNAMICS) mean=  3.22988236752829E+00
DEBUG_STATS_RL:               Theta (DYNAMICS) S.D.=  5.88908629383875E+00
DEBUG_STATS_RL:                Salt (DYNAMICS)  min=  9.99999999999996E-03
DEBUG_STATS_RL:                Salt (DYNAMICS)  max=  3.74785914065434E+01
DEBUG_STATS_RL:                Salt (DYNAMICS) mean=  1.88547209431093E+01
DEBUG_STATS_RL:                Salt (DYNAMICS) S.D.=  1.73002845848363E+01
DEBUG_STATS_RL:                  Gu (DYNAMICS)  min= -1.34962550312906E-01
DEBUG_STATS_RL:                  Gu (DYNAMICS)  max=  1.31765844551363E-01
DEBUG_STATS_RL:                  Gu (DYNAMICS) mean=  5.88507712872343E-03
DEBUG_STATS_RL:                  Gu (DYNAMICS) S.D.=  2.25525798880226E-02
DEBUG_STATS_RL:                  Gv (DYNAMICS)  min= -8.55828200590535E-02
DEBUG_STATS_RL:                  Gv (DYNAMICS)  max=  1.32871809992930E-01
DEBUG_STATS_RL:                  Gv (DYNAMICS) mean=  3.48848334890375E-03
DEBUG_STATS_RL:                  Gv (DYNAMICS) S.D.=  1.44343307727460E-02
DEBUG_STATS_RL:               GuNm1 (DYNAMICS)  min= -9.56426859726091E-06
DEBUG_STATS_RL:               GuNm1 (DYNAMICS)  max=  1.01358789195324E-05
DEBUG_STATS_RL:               GuNm1 (DYNAMICS) mean=  1.56651897486484E-08
DEBUG_STATS_RL:               GuNm1 (DYNAMICS) S.D.=  1.22791808736652E-06
DEBUG_STATS_RL:               GvNm1 (DYNAMICS)  min= -9.29164733605345E-06
DEBUG_STATS_RL:               GvNm1 (DYNAMICS)  max=  1.50648235522905E-05
DEBUG_STATS_RL:               GvNm1 (DYNAMICS) mean=  7.40578251596338E-07
DEBUG_STATS_RL:               GvNm1 (DYNAMICS) S.D.=  2.60352654505748E-06
DEBUG_STATS_RL:               GtNm1 (DYNAMICS)  min= -2.97429843416121E-06
DEBUG_STATS_RL:               GtNm1 (DYNAMICS)  max=  1.93212613350646E-06
DEBUG_STATS_RL:               GtNm1 (DYNAMICS) mean= -2.19049516605019E-09
DEBUG_STATS_RL:               GtNm1 (DYNAMICS) S.D.=  1.30818815894537E-07
DEBUG_STATS_RL:               GsNm1 (DYNAMICS)  min= -6.57934339034724E-07
DEBUG_STATS_RL:               GsNm1 (DYNAMICS)  max=  4.44292067229131E-07
DEBUG_STATS_RL:               GsNm1 (DYNAMICS) mean= -2.49701574397597E-10
DEBUG_STATS_RL:               GsNm1 (DYNAMICS) S.D.=  1.35132391537689E-08
DEBUG_STATS_RL:    cg2d_b (SOLVE_FOR_PRESSURE)  min= -2.86027413577829E+04
DEBUG_STATS_RL:    cg2d_b (SOLVE_FOR_PRESSURE)  max=  3.10849129520395E+04
DEBUG_STATS_RL:    cg2d_b (SOLVE_FOR_PRESSURE) mean=  5.59175931246933E+00
DEBUG_STATS_RL:    cg2d_b (SOLVE_FOR_PRESSURE) S.D.=  4.01340697442716E+03
 cg2d: Sum(rhs),rhsMax =   4.16437479762003E-01  2.04174031023514E+00
(PID.TID 0000.0001)  cg2d: iter=     1 ; resid.=  5.61686025052678E-02
(PID.TID 0000.0001)  cg2d: iter=     2 ; resid.=  3.72149877873124E-02
(PID.TID 0000.0001)  cg2d: iter=     3 ; resid.=  3.34219010735692E-02
(PID.TID 0000.0001)  cg2d: iter=     4 ; resid.=  3.15556450167925E-02
(PID.TID 0000.0001)  cg2d: iter=     5 ; resid.=  2.51604164591641E-02
(PID.TID 0000.0001)  cg2d: iter=     6 ; resid.=  2.43452886218833E-02
(PID.TID 0000.0001)  cg2d: iter=     7 ; resid.=  2.03523607316079E-02
(PID.TID 0000.0001)  cg2d: iter=     8 ; resid.=  1.72741549176463E-02
(PID.TID 0000.0001)  cg2d: iter=     9 ; resid.=  1.39360956407843E-02
(PID.TID 0000.0001)  cg2d: iter=    10 ; resid.=  1.10300654308390E-02
(PID.TID 0000.0001)  cg2d: iter=    11 ; resid.=  9.21947771145608E-03
(PID.TID 0000.0001)  cg2d: iter=    12 ; resid.=  7.55108931339146E-03
(PID.TID 0000.0001)  cg2d: iter=    13 ; resid.=  5.87518717080442E-03
(PID.TID 0000.0001)  cg2d: iter=    14 ; resid.=  4.84447694200223E-03
(PID.TID 0000.0001)  cg2d: iter=    15 ; resid.=  3.96403994490684E-03
(PID.TID 0000.0001)  cg2d: iter=    16 ; resid.=  3.31152605635953E-03
(PID.TID 0000.0001)  cg2d: iter=    17 ; resid.=  3.09559605933421E-03
(PID.TID 0000.0001)  cg2d: iter=    18 ; resid.=  2.69677316253639E-03
(PID.TID 0000.0001)  cg2d: iter=    19 ; resid.=  2.38368594055432E-03
(PID.TID 0000.0001)  cg2d: iter=    20 ; resid.=  1.95324653365887E-03
(PID.TID 0000.0001)  cg2d: iter=    21 ; resid.=  1.63952275387910E-03
(PID.TID 0000.0001)  cg2d: iter=    22 ; resid.=  1.45485635439470E-03
(PID.TID 0000.0001)  cg2d: iter=    23 ; resid.=  1.14901604556342E-03
(PID.TID 0000.0001)  cg2d: iter=    24 ; resid.=  9.81981905465696E-04
(PID.TID 0000.0001)  cg2d: iter=    25 ; resid.=  7.70761058469481E-04
(PID.TID 0000.0001)  cg2d: iter=    26 ; resid.=  5.94237015205744E-04
(PID.TID 0000.0001)  cg2d: iter=    27 ; resid.=  4.94761443183731E-04
(PID.TID 0000.0001)  cg2d: iter=    28 ; resid.=  4.08095529248889E-04
(PID.TID 0000.0001)  cg2d: iter=    29 ; resid.=  3.35285196076447E-04
(PID.TID 0000.0001)  cg2d: iter=    30 ; resid.=  2.80692459641419E-04
(PID.TID 0000.0001)  cg2d: iter=    31 ; resid.=  2.55145854227145E-04
(PID.TID 0000.0001)  cg2d: iter=    32 ; resid.=  2.04495630661728E-04
(PID.TID 0000.0001)  cg2d: iter=    33 ; resid.=  1.56315103419290E-04
(PID.TID 0000.0001)  cg2d: iter=    34 ; resid.=  1.41149639597839E-04
(PID.TID 0000.0001)  cg2d: iter=    35 ; resid.=  1.18678783902552E-04
(PID.TID 0000.0001)  cg2d: iter=    36 ; resid.=  9.87731261074666E-05
(PID.TID 0000.0001)  cg2d: iter=    37 ; resid.=  8.85537688941407E-05
(PID.TID 0000.0001)  cg2d: iter=    38 ; resid.=  7.32593092256339E-05
(PID.TID 0000.0001)  cg2d: iter=    39 ; resid.=  6.18996395971914E-05
(PID.TID 0000.0001)  cg2d: iter=    40 ; resid.=  5.22479620353694E-05
(PID.TID 0000.0001)  cg2d: iter=    41 ; resid.=  4.44745064294825E-05
(PID.TID 0000.0001)  cg2d: iter=    42 ; resid.=  3.99576120160461E-05
(PID.TID 0000.0001)  cg2d: iter=    43 ; resid.=  3.66724396913302E-05
(PID.TID 0000.0001)  cg2d: iter=    44 ; resid.=  2.96058184780532E-05
(PID.TID 0000.0001)  cg2d: iter=    45 ; resid.=  2.35633603166897E-05
(PID.TID 0000.0001)  cg2d: iter=    46 ; resid.=  1.80550875223650E-05
(PID.TID 0000.0001)  cg2d: iter=    47 ; resid.=  1.42416612999442E-05
(PID.TID 0000.0001)  cg2d: iter=    48 ; resid.=  1.24712816674136E-05
(PID.TID 0000.0001)  cg2d: iter=    49 ; resid.=  1.07888300344349E-05
(PID.TID 0000.0001)  cg2d: iter=    50 ; resid.=  8.32807192827540E-06
(PID.TID 0000.0001)  cg2d: iter=    51 ; resid.=  6.73140086201702E-06
(PID.TID 0000.0001)  cg2d: iter=    52 ; resid.=  5.61398449858111E-06
(PID.TID 0000.0001)  cg2d: iter=    53 ; resid.=  4.89433731669191E-06
(PID.TID 0000.0001)  cg2d: iter=    54 ; resid.=  4.16089819980847E-06
(PID.TID 0000.0001)  cg2d: iter=    55 ; resid.=  3.45368231693419E-06
(PID.TID 0000.0001)  cg2d: iter=    56 ; resid.=  3.01031324333636E-06
(PID.TID 0000.0001)  cg2d: iter=    57 ; resid.=  2.52388144174681E-06
(PID.TID 0000.0001)  cg2d: iter=    58 ; resid.=  1.89467743491880E-06
(PID.TID 0000.0001)  cg2d: iter=    59 ; resid.=  1.43666491270781E-06
(PID.TID 0000.0001)  cg2d: iter=    60 ; resid.=  1.21394115036141E-06
(PID.TID 0000.0001)  cg2d: iter=    61 ; resid.=  9.97707538117909E-07
(PID.TID 0000.0001)  cg2d: iter=    62 ; resid.=  8.23636998124045E-07
(PID.TID 0000.0001)  cg2d: iter=    63 ; resid.=  7.30092391382754E-07
(PID.TID 0000.0001)  cg2d: iter=    64 ; resid.=  6.26011713504836E-07
(PID.TID 0000.0001)  cg2d: iter=    65 ; resid.=  5.17204587719964E-07
(PID.TID 0000.0001)  cg2d: iter=    66 ; resid.=  4.17036646327541E-07
(PID.TID 0000.0001)  cg2d: iter=    67 ; resid.=  3.49085118200513E-07
(PID.TID 0000.0001)  cg2d: iter=    68 ; resid.=  2.69045786980325E-07
(PID.TID 0000.0001)  cg2d: iter=    69 ; resid.=  1.97313235495286E-07
(PID.TID 0000.0001)  cg2d: iter=    70 ; resid.=  1.45964716802712E-07
(PID.TID 0000.0001)  cg2d: iter=    71 ; resid.=  1.24288602629420E-07
(PID.TID 0000.0001)  cg2d: iter=    72 ; resid.=  1.05869588977989E-07
(PID.TID 0000.0001)  cg2d: iter=    73 ; resid.=  9.84195510307147E-08
(PID.TID 0000.0001)  cg2d: iter=    74 ; resid.=  8.73631607176453E-08
(PID.TID 0000.0001)  cg2d: iter=    75 ; resid.=  6.93550985680248E-08
(PID.TID 0000.0001)  cg2d: iter=    76 ; resid.=  5.56897180873289E-08
(PID.TID 0000.0001)  cg2d: iter=    77 ; resid.=  4.92192126329504E-08
(PID.TID 0000.0001)  cg2d: iter=    78 ; resid.=  4.36484564276928E-08
(PID.TID 0000.0001)  cg2d: iter=    79 ; resid.=  3.70809277443632E-08
(PID.TID 0000.0001)  cg2d: iter=    80 ; resid.=  3.03403288595802E-08
(PID.TID 0000.0001)  cg2d: iter=    81 ; resid.=  2.40745060144835E-08
(PID.TID 0000.0001)  cg2d: iter=    82 ; resid.=  1.77696881587787E-08
(PID.TID 0000.0001)  cg2d: iter=    83 ; resid.=  1.29770407715623E-08
(PID.TID 0000.0001)  cg2d: iter=    84 ; resid.=  9.29025389560744E-09
(PID.TID 0000.0001)  cg2d: iter=    85 ; resid.=  6.80197710177463E-09
(PID.TID 0000.0001)  cg2d: iter=    86 ; resid.=  5.18060937822335E-09
(PID.TID 0000.0001)  cg2d: iter=    87 ; resid.=  4.15681004340397E-09
(PID.TID 0000.0001)  cg2d: iter=    88 ; resid.=  3.24132236846931E-09
(PID.TID 0000.0001)  cg2d: iter=    89 ; resid.=  2.70241248408652E-09
(PID.TID 0000.0001)  cg2d: iter=    90 ; resid.=  2.26276035017995E-09
(PID.TID 0000.0001)  cg2d: iter=    91 ; resid.=  1.78666442253026E-09
(PID.TID 0000.0001)  cg2d: iter=    92 ; resid.=  1.33402915622892E-09
(PID.TID 0000.0001)  cg2d: iter=    93 ; resid.=  9.76140222803875E-10
(PID.TID 0000.0001)  cg2d: iter=    94 ; resid.=  7.51008145904422E-10
(PID.TID 0000.0001)  cg2d: iter=    95 ; resid.=  6.29944502636657E-10
(PID.TID 0000.0001)  cg2d: iter=    96 ; resid.=  4.96324408113877E-10
(PID.TID 0000.0001)  cg2d: iter=    97 ; resid.=  3.64738224047170E-10
(PID.TID 0000.0001)  cg2d: iter=    98 ; resid.=  2.79437626374116E-10
(PID.TID 0000.0001)  cg2d: iter=    99 ; resid.=  2.24403412903094E-10
(PID.TID 0000.0001)  cg2d: iter=   100 ; resid.=  2.02663339230337E-10
(PID.TID 0000.0001)  cg2d: iter=   101 ; resid.=  1.72313434053536E-10
(PID.TID 0000.0001)  cg2d: iter=   102 ; resid.=  1.40615788554741E-10
(PID.TID 0000.0001)  cg2d: iter=   103 ; resid.=  1.19398222658566E-10
(PID.TID 0000.0001)  cg2d: iter=   104 ; resid.=  1.02706251151470E-10
(PID.TID 0000.0001)  cg2d: iter=   105 ; resid.=  8.87342534808183E-11
(PID.TID 0000.0001)  cg2d: iter=   106 ; resid.=  6.55667507261957E-11
(PID.TID 0000.0001)  cg2d: iter=   107 ; resid.=  5.13493398329239E-11
(PID.TID 0000.0001)  cg2d: iter=   108 ; resid.=  3.70754975931580E-11
(PID.TID 0000.0001)  cg2d: iter=   109 ; resid.=  2.60197349747169E-11
(PID.TID 0000.0001)  cg2d: iter=   110 ; resid.=  2.02117611230064E-11
(PID.TID 0000.0001)  cg2d: iter=   111 ; resid.=  1.75167054858242E-11
(PID.TID 0000.0001)  cg2d: iter=   112 ; resid.=  1.44315161717651E-11
(PID.TID 0000.0001)  cg2d: iter=   113 ; resid.=  1.04782785521288E-11
(PID.TID 0000.0001)  cg2d: iter=   114 ; resid.=  8.24857923032958E-12
(PID.TID 0000.0001)  cg2d: iter=   115 ; resid.=  6.70269754487140E-12
(PID.TID 0000.0001)  cg2d: iter=   116 ; resid.=  4.86695327106793E-12
(PID.TID 0000.0001)  cg2d: iter=   117 ; resid.=  3.69627517634078E-12
(PID.TID 0000.0001)  cg2d: iter=   118 ; resid.=  2.90770379919595E-12
(PID.TID 0000.0001)  cg2d: iter=   119 ; resid.=  2.06142418302257E-12
(PID.TID 0000.0001)  cg2d: iter=   120 ; resid.=  1.51987528567123E-12
(PID.TID 0000.0001)  cg2d: iter=   121 ; resid.=  1.15386563178272E-12
(PID.TID 0000.0001)  cg2d: iter=   122 ; resid.=  7.90124682905477E-13
(PID.TID 0000.0001)  cg2d: iter=   123 ; resid.=  5.55866699776951E-13
(PID.TID 0000.0001)  cg2d: iter=   124 ; resid.=  4.06631108865212E-13
(PID.TID 0000.0001)  cg2d: iter=   125 ; resid.=  3.14145765447392E-13
(PID.TID 0000.0001)  cg2d: iter=   126 ; resid.=  2.45623583565809E-13
(PID.TID 0000.0001)  cg2d: iter=   127 ; resid.=  1.68896841403243E-13
(PID.TID 0000.0001)  cg2d: iter=   128 ; resid.=  1.25794381144338E-13
(PID.TID 0000.0001)  cg2d: iter=   129 ; resid.=  9.18335657705729E-14
DEBUG_STATS_RL:    cg2d_x (SOLVE_FOR_PRESSURE)  min= -1.82007916020441E+01
DEBUG_STATS_RL:    cg2d_x (SOLVE_FOR_PRESSURE)  max=  8.35215872175657E+00
DEBUG_STATS_RL:    cg2d_x (SOLVE_FOR_PRESSURE) mean= -1.84620155746626E+00
DEBUG_STATS_RL:    cg2d_x (SOLVE_FOR_PRESSURE) S.D.=  7.04648549363973E+00
(PID.TID 0000.0001)      cg2d_init_res =   1.77310495981011E-01
(PID.TID 0000.0001)      cg2d_iters(min,last) =      -1     129
(PID.TID 0000.0001)      cg2d_last_res =   9.18335657705729E-14
(PID.TID 0000.0001) // =======================================================
(PID.TID 0000.0001) // Begin MONITOR dynamic field statistics
(PID.TID 0000.0001) // =======================================================
(PID.TID 0000.0001) %MON time_tsnumber                =                    94
(PID.TID 0000.0001) %MON time_secondsf                =   8.1216000000000E+06
(PID.TID 0000.0001) %MON dynstat_eta_max              =   8.5139232637672E-01
(PID.TID 0000.0001) %MON dynstat_eta_min              =  -1.8553304385366E+00
(PID.TID 0000.0001) %MON dynstat_eta_mean             =  -5.8343074872978E-03
(PID.TID 0000.0001) %MON dynstat_eta_sd               =   6.1445182177931E-01
(PID.TID 0000.0001) %MON dynstat_eta_del2             =   2.5456164540164E-03
(PID.TID 0000.0001) %MON dynstat_uvel_max             =   1.3415317362906E-01
(PID.TID 0000.0001) %MON dynstat_uvel_min             =  -1.3564737769524E-01
(PID.TID 0000.0001) %MON dynstat_uvel_mean            =   2.4352246121362E-03
(PID.TID 0000.0001) %MON dynstat_uvel_sd              =   1.4131261471894E-02
(PID.TID 0000.0001) %MON dynstat_uvel_del2            =   9.3331370430042E-05
(PID.TID 0000.0001) %MON dynstat_vvel_max             =   1.3126699222654E-01
(PID.TID 0000.0001) %MON dynstat_vvel_min             =  -8.7532076478908E-02
(PID.TID 0000.0001) %MON dynstat_vvel_mean            =   4.7410278544866E-05
(PID.TID 0000.0001) %MON dynstat_vvel_sd              =   7.9052882969207E-03
(PID.TID 0000.0001) %MON dynstat_vvel_del2            =   7.5484370257212E-05
(PID.TID 0000.0001) %MON dynstat_wvel_max             =   1.2509413466151E-04
(PID.TID 0000.0001) %MON dynstat_wvel_min             =  -6.1407576492230E-05
(PID.TID 0000.0001) %MON dynstat_wvel_mean            =  -3.3946645867246E-23
(PID.TID 0000.0001) %MON dynstat_wvel_sd              =   9.3350510508537E-06
(PID.TID 0000.0001) %MON dynstat_wvel_del2            =   9.1857506504720E-08
(PID.TID 0000.0001) %MON dynstat_theta_max            =   3.1267031565230E+01
(PID.TID 0000.0001) %MON dynstat_theta_min            =  -1.9286690552478E+00
(PID.TID 0000.0001) %MON dynstat_theta_mean           =   3.6343146750112E+00
(PID.TID 0000.0001) %MON dynstat_theta_sd             =   4.4290265337273E+00
(PID.TID 0000.0001) %MON dynstat_theta_del2           =   4.8131751571103E-03
(PID.TID 0000.0001) %MON dynstat_salt_max             =   3.7478591406543E+01
(PID.TID 0000.0001) %MON dynstat_salt_min             =   2.9965703059725E+01
(PID.TID 0000.0001) %MON dynstat_salt_mean            =   3.4727997211475E+01
(PID.TID 0000.0001) %MON dynstat_salt_sd              =   2.9666880547359E-01
(PID.TID 0000.0001) %MON dynstat_salt_del2            =   9.9933265329916E-04
(PID.TID 0000.0001) %MON dynstat_sst_max              =   3.1267031565230E+01
(PID.TID 0000.0001) %MON dynstat_sst_min              =  -1.9286690552478E+00
(PID.TID 0000.0001) %MON dynstat_sst_mean             =   1.9046531330143E+01
(PID.TID 0000.0001) %MON dynstat_sst_sd               =   9.2832276164820E+00
(PID.TID 0000.0001) %MON dynstat_sst_del2             =   2.9384819474877E-02
(PID.TID 0000.0001) %MON dynstat_sss_max              =   3.7478591406543E+01
(PID.TID 0000.0001) %MON dynstat_sss_min              =   2.9965703059725E+01
(PID.TID 0000.0001) %MON dynstat_sss_mean             =   3.4846360099595E+01
(PID.TID 0000.0001) %MON dynstat_sss_sd               =   9.9251195989160E-01
(PID.TID 0000.0001) %MON dynstat_sss_del2             =   8.3456269457275E-03
(PID.TID 0000.0001) %MON forcing_qnet_max             =   1.8981346435547E+02
(PID.TID 0000.0001) %MON forcing_qnet_min             =  -1.5615165710449E+02
(PID.TID 0000.0001) %MON forcing_qnet_mean            =  -1.1841026869120E-01
(PID.TID 0000.0001) %MON forcing_qnet_sd              =   4.0013480692075E+01
(PID.TID 0000.0001) %MON forcing_qnet_del2            =   7.8393243873400E-01
(PID.TID 0000.0001) %MON forcing_qsw_max              =   0.0000000000000E+00
(PID.TID 0000.0001) %MON forcing_qsw_min              =   0.0000000000000E+00
(PID.TID 0000.0001) %MON forcing_qsw_mean             =   0.0000000000000E+00
(PID.TID 0000.0001) %MON forcing_qsw_sd               =   0.0000000000000E+00
(PID.TID 0000.0001) %MON forcing_qsw_del2             =   0.0000000000000E+00
(PID.TID 0000.0001) %MON forcing_empmr_max            =   6.7377743562247E-05
(PID.TID 0000.0001) %MON forcing_empmr_min            =  -8.3531647021573E-05
(PID.TID 0000.0001) %MON forcing_empmr_mean           =   1.4669448678252E-07
(PID.TID 0000.0001) %MON forcing_empmr_sd             =   2.5518064463179E-05
(PID.TID 0000.0001) %MON forcing_empmr_del2           =   3.6546096507275E-07
(PID.TID 0000.0001) %MON forcing_fu_max               =   3.4641349911690E-01
(PID.TID 0000.0001) %MON forcing_fu_min               =  -4.0535171627998E-01
(PID.TID 0000.0001) %MON forcing_fu_mean              =   1.8167271555597E-02
(PID.TID 0000.0001) %MON forcing_fu_sd                =   1.0064293488596E-01
(PID.TID 0000.0001) %MON forcing_fu_del2              =   7.8101122025666E-04
(PID.TID 0000.0001) %MON forcing_fv_max               =   1.8157232403755E-01
(PID.TID 0000.0001) %MON forcing_fv_min               =  -1.4387770295143E-01
(PID.TID 0000.0001) %MON forcing_fv_mean              =  -6.8729953373301E-03
(PID.TID 0000.0001) %MON forcing_fv_sd                =   3.8666482891470E-02
(PID.TID 0000.0001) %MON forcing_fv_del2              =   4.1536218314166E-04
(PID.TID 0000.0001) %MON trAdv_CFL_u_max              =   4.4791749388240E-02
(PID.TID 0000.0001) %MON trAdv_CFL_v_max              =   2.5777415731302E-02
(PID.TID 0000.0001) %MON trAdv_CFL_w_max              =   2.7683086567979E-02
(PID.TID 0000.0001) %MON advcfl_uvel_max              =   4.5345179686485E-02
(PID.TID 0000.0001) %MON advcfl_vvel_max              =   2.5503071320170E-02
(PID.TID 0000.0001) %MON advcfl_wvel_max              =   2.8782811756301E-02
(PID.TID 0000.0001) %MON advcfl_W_hf_max              =   3.0899194973677E-02
(PID.TID 0000.0001) %MON pe_b_mean                    =   4.8316562181106E-04
(PID.TID 0000.0001) %MON ke_max                       =   1.0895921247677E-02
(PID.TID 0000.0001) %MON ke_mean                      =   1.2147469941763E-04
(PID.TID 0000.0001) %MON ke_vol                       =   1.3226782436723E+18
(PID.TID 0000.0001) %MON vort_r_min                   =  -3.5870351688479E-07
(PID.TID 0000.0001) %MON vort_r_max                   =   4.0342751293304E-07
(PID.TID 0000.0001) %MON vort_a_mean                  =  -2.5274807157924E-05
(PID.TID 0000.0001) %MON vort_a_sd                    =   7.3604665529411E-05
(PID.TID 0000.0001) %MON vort_p_mean                  =  -3.1845655497674E-05
(PID.TID 0000.0001) %MON vort_p_sd                    =   1.3162484950921E-04
(PID.TID 0000.0001) %MON surfExpan_theta_mean         =  -6.3596689932996E-08
(PID.TID 0000.0001) %MON surfExpan_salt_mean          =   4.8392762692525E-08
(PID.TID 0000.0001) // =======================================================
(PID.TID 0000.0001) // End MONITOR dynamic field statistics
(PID.TID 0000.0001) // =======================================================
 EXTERNAL_FIELDS_LOAD,        94 : iP,iLd,i0,i1=    3    4    3    4 ; Wght=  0.3666666667  0.6333333333
 EXTERNAL_FIELDS_LOAD: (fu0,1),fu,fv= -2.7199E-02 -3.7252E-02 -3.3566E-02 -2.2515E-02
 EXTERNAL_FIELDS_LOAD: SST,SSS,Q,E-P= -4.5052E-02  3.4573E+01  1.4491E+02  8.2500E-06
DEBUG_STATS_RL:          Uvel (THERMODYNAMICS)  min= -1.35647377695240E-01
DEBUG_STATS_RL:          Uvel (THERMODYNAMICS)  max=  1.34153173629064E-01
DEBUG_STATS_RL:          Uvel (THERMODYNAMICS) mean=  5.92674467504624E-03
DEBUG_STATS_RL:          Uvel (THERMODYNAMICS) S.D.=  2.21697614550833E-02
DEBUG_STATS_RL:          Vvel (THERMODYNAMICS)  min= -8.75320764789082E-02
DEBUG_STATS_RL:          Vvel (THERMODYNAMICS)  max=  1.31266992226544E-01
DEBUG_STATS_RL:          Vvel (THERMODYNAMICS) mean=  8.72539708096662E-04
DEBUG_STATS_RL:          Vvel (THERMODYNAMICS) S.D.=  1.28131575097837E-02
DEBUG_STATS_RL:          Wvel (THERMODYNAMICS)  min= -6.14075764922305E-05
DEBUG_STATS_RL:          Wvel (THERMODYNAMICS)  max=  1.25094134661506E-04
DEBUG_STATS_RL:          Wvel (THERMODYNAMICS) mean= -3.62499090936602E-08
DEBUG_STATS_RL:          Wvel (THERMODYNAMICS) S.D.=  8.21121373078581E-06
DEBUG_STATS_RL:         Theta (THERMODYNAMICS)  min= -1.92731155668140E+00
DEBUG_STATS_RL:         Theta (THERMODYNAMICS)  max=  3.12789100495621E+01
DEBUG_STATS_RL:         Theta (THERMODYNAMICS) mean=  3.22971430666758E+00
DEBUG_STATS_RL:         Theta (THERMODYNAMICS) S.D.=  5.88906640590115E+00
DEBUG_STATS_RL:          Salt (THERMODYNAMICS)  min=  9.99999999999996E-03
DEBUG_STATS_RL:          Salt (THERMODYNAMICS)  max=  3.74793913881436E+01
DEBUG_STATS_RL:          Salt (THERMODYNAMICS) mean=  1.88547130349803E+01
DEBUG_STATS_RL:          Salt (THERMODYNAMICS) S.D.=  1.73002781452814E+01
DEBUG_STATS_RL:         GtNm1 (THERMODYNAMICS)  min= -2.89237942678151E-06
DEBUG_STATS_RL:         GtNm1 (THERMODYNAMICS)  max=  1.88865554839081E-06
DEBUG_STATS_RL:         GtNm1 (THERMODYNAMICS) mean= -2.35174804361102E-09
DEBUG_STATS_RL:         GtNm1 (THERMODYNAMICS) S.D.=  1.29652403059485E-07
DEBUG_STATS_RL:         GsNm1 (THERMODYNAMICS)  min= -6.48781903718413E-07
DEBUG_STATS_RL:         GsNm1 (THERMODYNAMICS)  max=  4.36704932484918E-07
DEBUG_STATS_RL:         GsNm1 (THERMODYNAMICS) mean= -2.46308795808266E-10
DEBUG_STATS_RL:         GsNm1 (THERMODYNAMICS) S.D.=  1.34139592773585E-08
DEBUG_STATS_RL:                EtaN (DYNAMICS)  min= -1.85533043853661E+00
DEBUG_STATS_RL:                EtaN (DYNAMICS)  max=  8.51392326376724E-01
DEBUG_STATS_RL:                EtaN (DYNAMICS) mean= -1.88195877417563E-01
DEBUG_STATS_RL:                EtaN (DYNAMICS) S.D.=  7.18296176721694E-01
DEBUG_STATS_RL:                Uvel (DYNAMICS)  min= -1.35647377695240E-01
DEBUG_STATS_RL:                Uvel (DYNAMICS)  max=  1.34153173629064E-01
DEBUG_STATS_RL:                Uvel (DYNAMICS) mean=  5.92674467504624E-03
DEBUG_STATS_RL:                Uvel (DYNAMICS) S.D.=  2.21697614550833E-02
DEBUG_STATS_RL:                Vvel (DYNAMICS)  min= -8.75320764789082E-02
DEBUG_STATS_RL:                Vvel (DYNAMICS)  max=  1.31266992226544E-01
DEBUG_STATS_RL:                Vvel (DYNAMICS) mean=  8.72539708096662E-04
DEBUG_STATS_RL:                Vvel (DYNAMICS) S.D.=  1.28131575097837E-02
DEBUG_STATS_RL:                Wvel (DYNAMICS)  min= -6.14075764922305E-05
DEBUG_STATS_RL:                Wvel (DYNAMICS)  max=  1.25094134661506E-04
DEBUG_STATS_RL:                Wvel (DYNAMICS) mean= -3.62499090936602E-08
DEBUG_STATS_RL:                Wvel (DYNAMICS) S.D.=  8.21121373078581E-06
DEBUG_STATS_RL:               Theta (DYNAMICS)  min= -1.92731155668140E+00
DEBUG_STATS_RL:               Theta (DYNAMICS)  max=  3.12789100495621E+01
DEBUG_STATS_RL:               Theta (DYNAMICS) mean=  3.22971430666758E+00
DEBUG_STATS_RL:               Theta (DYNAMICS) S.D.=  5.88906640590115E+00
DEBUG_STATS_RL:                Salt (DYNAMICS)  min=  9.99999999999996E-03
DEBUG_STATS_RL:                Salt (DYNAMICS)  max=  3.74793913881436E+01
DEBUG_STATS_RL:                Salt (DYNAMICS) mean=  1.88547130349803E+01
DEBUG_STATS_RL:                Salt (DYNAMICS) S.D.=  1.73002781452814E+01
DEBUG_STATS_RL:                  Gu (DYNAMICS)  min= -1.34651897673484E-01
DEBUG_STATS_RL:                  Gu (DYNAMICS)  max=  1.32817232724063E-01
DEBUG_STATS_RL:                  Gu (DYNAMICS) mean=  5.88523792664521E-03
DEBUG_STATS_RL:                  Gu (DYNAMICS) S.D.=  2.25896964897695E-02
DEBUG_STATS_RL:                  Gv (DYNAMICS)  min= -8.69998181634045E-02
DEBUG_STATS_RL:                  Gv (DYNAMICS)  max=  1.31211475906980E-01
DEBUG_STATS_RL:                  Gv (DYNAMICS) mean=  3.48767926545570E-03
DEBUG_STATS_RL:                  Gv (DYNAMICS) S.D.=  1.43832752484935E-02
DEBUG_STATS_RL:               GuNm1 (DYNAMICS)  min= -9.50488783004263E-06
DEBUG_STATS_RL:               GuNm1 (DYNAMICS)  max=  1.02068296584143E-05
DEBUG_STATS_RL:               GuNm1 (DYNAMICS) mean=  1.61115664609216E-08
DEBUG_STATS_RL:               GuNm1 (DYNAMICS) S.D.=  1.22848493799292E-06
DEBUG_STATS_RL:               GvNm1 (DYNAMICS)  min= -9.29761437567530E-06
DEBUG_STATS_RL:               GvNm1 (DYNAMICS)  max=  1.50328439670808E-05
DEBUG_STATS_RL:               GvNm1 (DYNAMICS) mean=  7.41086253118498E-07
DEBUG_STATS_RL:               GvNm1 (DYNAMICS) S.D.=  2.60313957662058E-06
DEBUG_STATS_RL:               GtNm1 (DYNAMICS)  min= -2.89237942678151E-06
DEBUG_STATS_RL:               GtNm1 (DYNAMICS)  max=  1.88865554839081E-06
DEBUG_STATS_RL:               GtNm1 (DYNAMICS) mean= -2.35174804361102E-09
DEBUG_STATS_RL:               GtNm1 (DYNAMICS) S.D.=  1.29652403059485E-07
DEBUG_STATS_RL:               GsNm1 (DYNAMICS)  min= -6.48781903718413E-07
DEBUG_STATS_RL:               GsNm1 (DYNAMICS)  max=  4.36704932484918E-07
DEBUG_STATS_RL:               GsNm1 (DYNAMICS) mean= -2.46308795808266E-10
DEBUG_STATS_RL:               GsNm1 (DYNAMICS) S.D.=  1.34139592773585E-08
DEBUG_STATS_RL:    cg2d_b (SOLVE_FOR_PRESSURE)  min= -2.84795145246623E+04
DEBUG_STATS_RL:    cg2d_b (SOLVE_FOR_PRESSURE)  max=  3.11963679512217E+04
DEBUG_STATS_RL:    cg2d_b (SOLVE_FOR_PRESSURE) mean=  5.60170021639631E+00
DEBUG_STATS_RL:    cg2d_b (SOLVE_FOR_PRESSURE) S.D.=  4.01696927868985E+03
 cg2d: Sum(rhs),rhsMax =   4.15687365312310E-01  2.04906097299391E+00
(PID.TID 0000.0001)  cg2d: iter=     1 ; resid.=  5.43571075189342E-02
(PID.TID 0000.0001)  cg2d: iter=     2 ; resid.=  3.46517223115758E-02
(PID.TID 0000.0001)  cg2d: iter=     3 ; resid.=  2.96680641911226E-02
(PID.TID 0000.0001)  cg2d: iter=     4 ; resid.=  2.73616539700535E-02
(PID.TID 0000.0001)  cg2d: iter=     5 ; resid.=  2.10520841321238E-02
(PID.TID 0000.0001)  cg2d: iter=     6 ; resid.=  1.94406474863883E-02
(PID.TID 0000.0001)  cg2d: iter=     7 ; resid.=  1.62131890971270E-02
(PID.TID 0000.0001)  cg2d: iter=     8 ; resid.=  1.42742193954086E-02
(PID.TID 0000.0001)  cg2d: iter=     9 ; resid.=  1.19362556887889E-02
(PID.TID 0000.0001)  cg2d: iter=    10 ; resid.=  9.71947229367331E-03
(PID.TID 0000.0001)  cg2d: iter=    11 ; resid.=  8.30113623882156E-03
(PID.TID 0000.0001)  cg2d: iter=    12 ; resid.=  6.90042572950105E-03
(PID.TID 0000.0001)  cg2d: iter=    13 ; resid.=  5.37850396484561E-03
(PID.TID 0000.0001)  cg2d: iter=    14 ; resid.=  4.43261727904511E-03
(PID.TID 0000.0001)  cg2d: iter=    15 ; resid.=  3.62349565268059E-03
(PID.TID 0000.0001)  cg2d: iter=    16 ; resid.=  2.96693199337440E-03
(PID.TID 0000.0001)  cg2d: iter=    17 ; resid.=  2.70492339334251E-03
(PID.TID 0000.0001)  cg2d: iter=    18 ; resid.=  2.34115399864112E-03
(PID.TID 0000.0001)  cg2d: iter=    19 ; resid.=  2.10932926538267E-03
(PID.TID 0000.0001)  cg2d: iter=    20 ; resid.=  1.74361677080210E-03
(PID.TID 0000.0001)  cg2d: iter=    21 ; resid.=  1.50639884896759E-03
(PID.TID 0000.0001)  cg2d: iter=    22 ; resid.=  1.33914453637900E-03
(PID.TID 0000.0001)  cg2d: iter=    23 ; resid.=  1.07197214272543E-03
(PID.TID 0000.0001)  cg2d: iter=    24 ; resid.=  9.20325150933372E-04
(PID.TID 0000.0001)  cg2d: iter=    25 ; resid.=  7.17118411903177E-04
(PID.TID 0000.0001)  cg2d: iter=    26 ; resid.=  5.57158589611399E-04
(PID.TID 0000.0001)  cg2d: iter=    27 ; resid.=  4.67534237016121E-04
(PID.TID 0000.0001)  cg2d: iter=    28 ; resid.=  3.83292847239132E-04
(PID.TID 0000.0001)  cg2d: iter=    29 ; resid.=  3.09984165032336E-04
(PID.TID 0000.0001)  cg2d: iter=    30 ; resid.=  2.54137377448263E-04
(PID.TID 0000.0001)  cg2d: iter=    31 ; resid.=  2.33028027229794E-04
(PID.TID 0000.0001)  cg2d: iter=    32 ; resid.=  1.90958983150500E-04
(PID.TID 0000.0001)  cg2d: iter=    33 ; resid.=  1.47104932280137E-04
(PID.TID 0000.0001)  cg2d: iter=    34 ; resid.=  1.31286701899129E-04
(PID.TID 0000.0001)  cg2d: iter=    35 ; resid.=  1.10170031015688E-04
(PID.TID 0000.0001)  cg2d: iter=    36 ; resid.=  9.31860247558847E-05
(PID.TID 0000.0001)  cg2d: iter=    37 ; resid.=  8.33863971788421E-05
(PID.TID 0000.0001)  cg2d: iter=    38 ; resid.=  6.83215303296776E-05
(PID.TID 0000.0001)  cg2d: iter=    39 ; resid.=  5.63079712369428E-05
(PID.TID 0000.0001)  cg2d: iter=    40 ; resid.=  4.68337258479314E-05
(PID.TID 0000.0001)  cg2d: iter=    41 ; resid.=  3.96178084270815E-05
(PID.TID 0000.0001)  cg2d: iter=    42 ; resid.=  3.61417131830269E-05
(PID.TID 0000.0001)  cg2d: iter=    43 ; resid.=  3.37752069948537E-05
(PID.TID 0000.0001)  cg2d: iter=    44 ; resid.=  2.75306200955923E-05
(PID.TID 0000.0001)  cg2d: iter=    45 ; resid.=  2.17635158981957E-05
(PID.TID 0000.0001)  cg2d: iter=    46 ; resid.=  1.66944882953748E-05
(PID.TID 0000.0001)  cg2d: iter=    47 ; resid.=  1.33885004232797E-05
(PID.TID 0000.0001)  cg2d: iter=    48 ; resid.=  1.14993633955831E-05
(PID.TID 0000.0001)  cg2d: iter=    49 ; resid.=  9.67045731816522E-06
(PID.TID 0000.0001)  cg2d: iter=    50 ; resid.=  7.25787063795507E-06
(PID.TID 0000.0001)  cg2d: iter=    51 ; resid.=  5.59304642126919E-06
(PID.TID 0000.0001)  cg2d: iter=    52 ; resid.=  4.53152322411144E-06
(PID.TID 0000.0001)  cg2d: iter=    53 ; resid.=  3.88753674444833E-06
(PID.TID 0000.0001)  cg2d: iter=    54 ; resid.=  3.38228012134009E-06
(PID.TID 0000.0001)  cg2d: iter=    55 ; resid.=  2.86731127128475E-06
(PID.TID 0000.0001)  cg2d: iter=    56 ; resid.=  2.49968439184929E-06
(PID.TID 0000.0001)  cg2d: iter=    57 ; resid.=  2.10943143927382E-06
(PID.TID 0000.0001)  cg2d: iter=    58 ; resid.=  1.62494221578196E-06
(PID.TID 0000.0001)  cg2d: iter=    59 ; resid.=  1.23702105214102E-06
(PID.TID 0000.0001)  cg2d: iter=    60 ; resid.=  1.02277935861270E-06
(PID.TID 0000.0001)  cg2d: iter=    61 ; resid.=  8.26847904354012E-07
(PID.TID 0000.0001)  cg2d: iter=    62 ; resid.=  6.59245953313787E-07
(PID.TID 0000.0001)  cg2d: iter=    63 ; resid.=  5.81554785273284E-07
(PID.TID 0000.0001)  cg2d: iter=    64 ; resid.=  5.27972024261351E-07
(PID.TID 0000.0001)  cg2d: iter=    65 ; resid.=  4.55285995477086E-07
(PID.TID 0000.0001)  cg2d: iter=    66 ; resid.=  3.74872761430244E-07
(PID.TID 0000.0001)  cg2d: iter=    67 ; resid.=  3.19438844472794E-07
(PID.TID 0000.0001)  cg2d: iter=    68 ; resid.=  2.45524681287324E-07
(PID.TID 0000.0001)  cg2d: iter=    69 ; resid.=  1.80748951465034E-07
(PID.TID 0000.0001)  cg2d: iter=    70 ; resid.=  1.31996371810724E-07
(PID.TID 0000.0001)  cg2d: iter=    71 ; resid.=  1.08981167307361E-07
(PID.TID 0000.0001)  cg2d: iter=    72 ; resid.=  8.81938321162405E-08
(PID.TID 0000.0001)  cg2d: iter=    73 ; resid.=  7.92222477036635E-08
(PID.TID 0000.0001)  cg2d: iter=    74 ; resid.=  6.73541046920705E-08
(PID.TID 0000.0001)  cg2d: iter=    75 ; resid.=  5.28089623181942E-08
(PID.TID 0000.0001)  cg2d: iter=    76 ; resid.=  4.22677775119021E-08
(PID.TID 0000.0001)  cg2d: iter=    77 ; resid.=  3.85700879130521E-08
(PID.TID 0000.0001)  cg2d: iter=    78 ; resid.=  3.50169450962489E-08
(PID.TID 0000.0001)  cg2d: iter=    79 ; resid.=  3.06385233644623E-08
(PID.TID 0000.0001)  cg2d: iter=    80 ; resid.=  2.57456811623829E-08
(PID.TID 0000.0001)  cg2d: iter=    81 ; resid.=  2.11705215480940E-08
(PID.TID 0000.0001)  cg2d: iter=    82 ; resid.=  1.64034940362565E-08
(PID.TID 0000.0001)  cg2d: iter=    83 ; resid.=  1.21862153423164E-08
(PID.TID 0000.0001)  cg2d: iter=    84 ; resid.=  8.64183878982477E-09
(PID.TID 0000.0001)  cg2d: iter=    85 ; resid.=  6.12290290739772E-09
(PID.TID 0000.0001)  cg2d: iter=    86 ; resid.=  4.52648806442027E-09
(PID.TID 0000.0001)  cg2d: iter=    87 ; resid.=  3.51075429048698E-09
(PID.TID 0000.0001)  cg2d: iter=    88 ; resid.=  2.66322447414188E-09
(PID.TID 0000.0001)  cg2d: iter=    89 ; resid.=  2.16335776716078E-09
(PID.TID 0000.0001)  cg2d: iter=    90 ; resid.=  1.81409984412318E-09
(PID.TID 0000.0001)  cg2d: iter=    91 ; resid.=  1.48267091187314E-09
(PID.TID 0000.0001)  cg2d: iter=    92 ; resid.=  1.13960532157535E-09
(PID.TID 0000.0001)  cg2d: iter=    93 ; resid.=  8.65925763684585E-10
(PID.TID 0000.0001)  cg2d: iter=    94 ; resid.=  6.69223676050610E-10
(PID.TID 0000.0001)  cg2d: iter=    95 ; resid.=  5.58814177732048E-10
(PID.TID 0000.0001)  cg2d: iter=    96 ; resid.=  4.34242252146469E-10
(PID.TID 0000.0001)  cg2d: iter=    97 ; resid.=  3.14692918553394E-10
(PID.TID 0000.0001)  cg2d: iter=    98 ; resid.=  2.33677575754285E-10
(PID.TID 0000.0001)  cg2d: iter=    99 ; resid.=  1.73790648065137E-10
(PID.TID 0000.0001)  cg2d: iter=   100 ; resid.=  1.45822585901720E-10
(PID.TID 0000.0001)  cg2d: iter=   101 ; resid.=  1.17910715994949E-10
(PID.TID 0000.0001)  cg2d: iter=   102 ; resid.=  9.35915589908659E-11
(PID.TID 0000.0001)  cg2d: iter=   103 ; resid.=  8.01409286094707E-11
(PID.TID 0000.0001)  cg2d: iter=   104 ; resid.=  7.34556231877512E-11
(PID.TID 0000.0001)  cg2d: iter=   105 ; resid.=  6.79058427868468E-11
(PID.TID 0000.0001)  cg2d: iter=   106 ; resid.=  5.42728480137470E-11
(PID.TID 0000.0001)  cg2d: iter=   107 ; resid.=  4.49346617981000E-11
(PID.TID 0000.0001)  cg2d: iter=   108 ; resid.=  3.30242364002490E-11
(PID.TID 0000.0001)  cg2d: iter=   109 ; resid.=  2.24974537470929E-11
(PID.TID 0000.0001)  cg2d: iter=   110 ; resid.=  1.67492984070101E-11
(PID.TID 0000.0001)  cg2d: iter=   111 ; resid.=  1.40812560302995E-11
(PID.TID 0000.0001)  cg2d: iter=   112 ; resid.=  1.16601644346353E-11
(PID.TID 0000.0001)  cg2d: iter=   113 ; resid.=  8.44554892308896E-12
(PID.TID 0000.0001)  cg2d: iter=   114 ; resid.=  6.47102974425585E-12
(PID.TID 0000.0001)  cg2d: iter=   115 ; resid.=  5.34412917852087E-12
(PID.TID 0000.0001)  cg2d: iter=   116 ; resid.=  4.01521230609084E-12
(PID.TID 0000.0001)  cg2d: iter=   117 ; resid.=  3.06531118871143E-12
(PID.TID 0000.0001)  cg2d: iter=   118 ; resid.=  2.45325135239445E-12
(PID.TID 0000.0001)  cg2d: iter=   119 ; resid.=  1.83860820868417E-12
(PID.TID 0000.0001)  cg2d: iter=   120 ; resid.=  1.36801752718400E-12
(PID.TID 0000.0001)  cg2d: iter=   121 ; resid.=  1.02641047829971E-12
(PID.TID 0000.0001)  cg2d: iter=   122 ; resid.=  7.12199562250387E-13
(PID.TID 0000.0001)  cg2d: iter=   123 ; resid.=  4.92548012963544E-13
(PID.TID 0000.0001)  cg2d: iter=   124 ; resid.=  3.51306252791358E-13
(PID.TID 0000.0001)  cg2d: iter=   125 ; resid.=  2.70928236745857E-13
(PID.TID 0000.0001)  cg2d: iter=   126 ; resid.=  2.14538025981757E-13
(PID.TID 0000.0001)  cg2d: iter=   127 ; resid.=  1.45626692599192E-13
(PID.TID 0000.0001)  cg2d: iter=   128 ; resid.=  1.03698097205543E-13
(PID.TID 0000.0001)  cg2d: iter=   129 ; resid.=  7.37483173357773E-14
DEBUG_STATS_RL:    cg2d_x (SOLVE_FOR_PRESSURE)  min= -1.80508371946437E+01
DEBUG_STATS_RL:    cg2d_x (SOLVE_FOR_PRESSURE)  max=  8.28690900866649E+00
DEBUG_STATS_RL:    cg2d_x (SOLVE_FOR_PRESSURE) mean= -1.84169907158194E+00
DEBUG_STATS_RL:    cg2d_x (SOLVE_FOR_PRESSURE) S.D.=  7.03967469768438E+00
(PID.TID 0000.0001)      cg2d_init_res =   1.73551625484048E-01
(PID.TID 0000.0001)      cg2d_iters(min,last) =      -1     129
(PID.TID 0000.0001)      cg2d_last_res =   7.37483173357773E-14
(PID.TID 0000.0001) // =======================================================
(PID.TID 0000.0001) // Begin MONITOR dynamic field statistics
(PID.TID 0000.0001) // =======================================================
(PID.TID 0000.0001) %MON time_tsnumber                =                    95
(PID.TID 0000.0001) %MON time_secondsf                =   8.2080000000000E+06
(PID.TID 0000.0001) %MON dynstat_eta_max              =   8.4474097947673E-01
(PID.TID 0000.0001) %MON dynstat_eta_min              =  -1.8400445662225E+00
(PID.TID 0000.0001) %MON dynstat_eta_mean             =  -5.8446795879128E-03
(PID.TID 0000.0001) %MON dynstat_eta_sd               =   6.1355296505301E-01
(PID.TID 0000.0001) %MON dynstat_eta_del2             =   2.5462495669412E-03
(PID.TID 0000.0001) %MON dynstat_uvel_max             =   1.3022597676106E-01
(PID.TID 0000.0001) %MON dynstat_uvel_min             =  -1.3519761823039E-01
(PID.TID 0000.0001) %MON dynstat_uvel_mean            =   2.4445197970710E-03
(PID.TID 0000.0001) %MON dynstat_uvel_sd              =   1.4121869793085E-02
(PID.TID 0000.0001) %MON dynstat_uvel_del2            =   9.3362857721356E-05
(PID.TID 0000.0001) %MON dynstat_vvel_max             =   1.2934022324626E-01
(PID.TID 0000.0001) %MON dynstat_vvel_min             =  -8.8725424951061E-02
(PID.TID 0000.0001) %MON dynstat_vvel_mean            =   4.4772435667218E-05
(PID.TID 0000.0001) %MON dynstat_vvel_sd              =   7.8668481298699E-03
(PID.TID 0000.0001) %MON dynstat_vvel_del2            =   7.5299488060892E-05
(PID.TID 0000.0001) %MON dynstat_wvel_max             =   1.2264672379651E-04
(PID.TID 0000.0001) %MON dynstat_wvel_min             =  -6.2402146991995E-05
(PID.TID 0000.0001) %MON dynstat_wvel_mean            =  -4.6802791143321E-23
(PID.TID 0000.0001) %MON dynstat_wvel_sd              =   9.2585537888270E-06
(PID.TID 0000.0001) %MON dynstat_wvel_del2            =   9.1045044967521E-08
(PID.TID 0000.0001) %MON dynstat_theta_max            =   3.1278910049562E+01
(PID.TID 0000.0001) %MON dynstat_theta_min            =  -1.9273115566814E+00
(PID.TID 0000.0001) %MON dynstat_theta_mean           =   3.6343131892548E+00
(PID.TID 0000.0001) %MON dynstat_theta_sd             =   4.4290562835378E+00
(PID.TID 0000.0001) %MON dynstat_theta_del2           =   4.8102029503246E-03
(PID.TID 0000.0001) %MON dynstat_salt_max             =   3.7479391388144E+01
(PID.TID 0000.0001) %MON dynstat_salt_min             =   2.9969157218424E+01
(PID.TID 0000.0001) %MON dynstat_salt_mean            =   3.4727996607863E+01
(PID.TID 0000.0001) %MON dynstat_salt_sd              =   2.9667511384516E-01
(PID.TID 0000.0001) %MON dynstat_salt_del2            =   9.9953057759535E-04
(PID.TID 0000.0001) %MON dynstat_sst_max              =   3.1278910049562E+01
(PID.TID 0000.0001) %MON dynstat_sst_min              =  -1.9273115566814E+00
(PID.TID 0000.0001) %MON dynstat_sst_mean             =   1.9043101079392E+01
(PID.TID 0000.0001) %MON dynstat_sst_sd               =   9.2903801435624E+00
(PID.TID 0000.0001) %MON dynstat_sst_del2             =   2.9402096690742E-02
(PID.TID 0000.0001) %MON dynstat_sss_max              =   3.7479391388144E+01
(PID.TID 0000.0001) %MON dynstat_sss_min              =   2.9969157218424E+01
(PID.TID 0000.0001) %MON dynstat_sss_mean             =   3.4846149768093E+01
(PID.TID 0000.0001) %MON dynstat_sss_sd               =   9.9293586853649E-01
(PID.TID 0000.0001) %MON dynstat_sss_del2             =   8.3540281445298E-03
(PID.TID 0000.0001) %MON forcing_qnet_max             =   1.8510822957357E+02
(PID.TID 0000.0001) %MON forcing_qnet_min             =  -1.5572366078695E+02
(PID.TID 0000.0001) %MON forcing_qnet_mean            =   2.7862616027840E-01
(PID.TID 0000.0001) %MON forcing_qnet_sd              =   4.0375401003210E+01
(PID.TID 0000.0001) %MON forcing_qnet_del2            =   7.8491634723733E-01
(PID.TID 0000.0001) %MON forcing_qsw_max              =   0.0000000000000E+00
(PID.TID 0000.0001) %MON forcing_qsw_min              =   0.0000000000000E+00
(PID.TID 0000.0001) %MON forcing_qsw_mean             =   0.0000000000000E+00
(PID.TID 0000.0001) %MON forcing_qsw_sd               =   0.0000000000000E+00
(PID.TID 0000.0001) %MON forcing_qsw_del2             =   0.0000000000000E+00
(PID.TID 0000.0001) %MON forcing_empmr_max            =   6.7281572550352E-05
(PID.TID 0000.0001) %MON forcing_empmr_min            =  -8.3546493101494E-05
(PID.TID 0000.0001) %MON forcing_empmr_mean           =   1.2424912195495E-07
(PID.TID 0000.0001) %MON forcing_empmr_sd             =   2.5509651539751E-05
(PID.TID 0000.0001) %MON forcing_empmr_del2           =   3.6610701590472E-07
(PID.TID 0000.0001) %MON forcing_fu_max               =   3.4592144489288E-01
(PID.TID 0000.0001) %MON forcing_fu_min               =  -4.0628478825092E-01
(PID.TID 0000.0001) %MON forcing_fu_mean              =   1.8040079458664E-02
(PID.TID 0000.0001) %MON forcing_fu_sd                =   1.0078745737191E-01
(PID.TID 0000.0001) %MON forcing_fu_del2              =   7.8389038691565E-04
(PID.TID 0000.0001) %MON forcing_fv_max               =   1.8147632280986E-01
(PID.TID 0000.0001) %MON forcing_fv_min               =  -1.4418310572704E-01
(PID.TID 0000.0001) %MON forcing_fv_mean              =  -6.8365186649570E-03
(PID.TID 0000.0001) %MON forcing_fv_sd                =   3.8691832000774E-02
(PID.TID 0000.0001) %MON forcing_fv_del2              =   4.1645921546217E-04
(PID.TID 0000.0001) %MON trAdv_CFL_u_max              =   4.5354389616794E-02
(PID.TID 0000.0001) %MON trAdv_CFL_v_max              =   2.5461624892465E-02
(PID.TID 0000.0001) %MON trAdv_CFL_w_max              =   2.6937759720641E-02
(PID.TID 0000.0001) %MON advcfl_uvel_max              =   4.5738423205822E-02
(PID.TID 0000.0001) %MON advcfl_vvel_max              =   2.5128731008959E-02
(PID.TID 0000.0001) %MON advcfl_wvel_max              =   2.8249396117497E-02
(PID.TID 0000.0001) %MON advcfl_W_hf_max              =   3.0326557596725E-02
(PID.TID 0000.0001) %MON pe_b_mean                    =   4.8175333121060E-04
(PID.TID 0000.0001) %MON ke_max                       =   1.0706842925973E-02
(PID.TID 0000.0001) %MON ke_mean                      =   1.2110245991779E-04
(PID.TID 0000.0001) %MON ke_vol                       =   1.3226782436723E+18
(PID.TID 0000.0001) %MON vort_r_min                   =  -3.6169541543572E-07
(PID.TID 0000.0001) %MON vort_r_max                   =   3.9828552058607E-07
(PID.TID 0000.0001) %MON vort_a_mean                  =  -2.5274807152220E-05
(PID.TID 0000.0001) %MON vort_a_sd                    =   7.3604668533160E-05
(PID.TID 0000.0001) %MON vort_p_mean                  =  -3.1845655490487E-05
(PID.TID 0000.0001) %MON vort_p_sd                    =   1.3162487260596E-04
(PID.TID 0000.0001) %MON surfExpan_theta_mean         =  -2.6578575944282E-08
(PID.TID 0000.0001) %MON surfExpan_salt_mean          =   3.9078895202976E-08
(PID.TID 0000.0001) // =======================================================
(PID.TID 0000.0001) // End MONITOR dynamic field statistics
(PID.TID 0000.0001) // =======================================================
 EXTERNAL_FIELDS_LOAD,        95 : iP,iLd,i0,i1=    3    4    3    4 ; Wght=  0.3333333333  0.6666666667
 EXTERNAL_FIELDS_LOAD: (fu0,1),fu,fv= -2.7199E-02 -3.7252E-02 -3.3901E-02 -2.3670E-02
 EXTERNAL_FIELDS_LOAD: SST,SSS,Q,E-P= -3.7744E-02  3.4572E+01  1.4120E+02  8.2063E-06
DEBUG_STATS_RL:          Uvel (THERMODYNAMICS)  min= -1.35197618230388E-01
DEBUG_STATS_RL:          Uvel (THERMODYNAMICS)  max=  1.30225976761060E-01
DEBUG_STATS_RL:          Uvel (THERMODYNAMICS) mean=  5.93214062376840E-03
DEBUG_STATS_RL:          Uvel (THERMODYNAMICS) S.D.=  2.22030672524094E-02
DEBUG_STATS_RL:          Vvel (THERMODYNAMICS)  min= -8.87254249510608E-02
DEBUG_STATS_RL:          Vvel (THERMODYNAMICS)  max=  1.29340223246255E-01
DEBUG_STATS_RL:          Vvel (THERMODYNAMICS) mean=  8.59945334891192E-04
DEBUG_STATS_RL:          Vvel (THERMODYNAMICS) S.D.=  1.27562237215060E-02
DEBUG_STATS_RL:          Wvel (THERMODYNAMICS)  min= -6.24021469919945E-05
DEBUG_STATS_RL:          Wvel (THERMODYNAMICS)  max=  1.22646723796505E-04
DEBUG_STATS_RL:          Wvel (THERMODYNAMICS) mean= -3.62655370991086E-08
DEBUG_STATS_RL:          Wvel (THERMODYNAMICS) S.D.=  8.13404505352442E-06
DEBUG_STATS_RL:         Theta (THERMODYNAMICS)  min= -1.92633882156738E+00
DEBUG_STATS_RL:         Theta (THERMODYNAMICS)  max=  3.12901284514768E+01
DEBUG_STATS_RL:         Theta (THERMODYNAMICS) mean=  3.22953774860427E+00
DEBUG_STATS_RL:         Theta (THERMODYNAMICS) S.D.=  5.88902351817459E+00
DEBUG_STATS_RL:          Salt (THERMODYNAMICS)  min=  9.99999999999996E-03
DEBUG_STATS_RL:          Salt (THERMODYNAMICS)  max=  3.74802316333550E+01
DEBUG_STATS_RL:          Salt (THERMODYNAMICS) mean=  1.88547055309029E+01
DEBUG_STATS_RL:          Salt (THERMODYNAMICS) S.D.=  1.73002720718194E+01
DEBUG_STATS_RL:         GtNm1 (THERMODYNAMICS)  min= -2.81026440021790E-06
DEBUG_STATS_RL:         GtNm1 (THERMODYNAMICS)  max=  1.82499098837066E-06
DEBUG_STATS_RL:         GtNm1 (THERMODYNAMICS) mean= -2.50526564766133E-09
DEBUG_STATS_RL:         GtNm1 (THERMODYNAMICS) S.D.=  1.27395899284976E-07
DEBUG_STATS_RL:         GsNm1 (THERMODYNAMICS)  min= -3.74854150210406E-07
DEBUG_STATS_RL:         GsNm1 (THERMODYNAMICS)  max=  2.40927026018600E-07
DEBUG_STATS_RL:         GsNm1 (THERMODYNAMICS) mean= -2.37407335902958E-10
DEBUG_STATS_RL:         GsNm1 (THERMODYNAMICS) S.D.=  1.25062340232899E-08
DEBUG_STATS_RL:                EtaN (DYNAMICS)  min= -1.84004456622253E+00
DEBUG_STATS_RL:                EtaN (DYNAMICS)  max=  8.44740979476735E-01
DEBUG_STATS_RL:                EtaN (DYNAMICS) mean= -1.87736908418140E-01
DEBUG_STATS_RL:                EtaN (DYNAMICS) S.D.=  7.17601905982102E-01
DEBUG_STATS_RL:                Uvel (DYNAMICS)  min= -1.35197618230388E-01
DEBUG_STATS_RL:                Uvel (DYNAMICS)  max=  1.30225976761060E-01
DEBUG_STATS_RL:                Uvel (DYNAMICS) mean=  5.93214062376840E-03
DEBUG_STATS_RL:                Uvel (DYNAMICS) S.D.=  2.22030672524094E-02
DEBUG_STATS_RL:                Vvel (DYNAMICS)  min= -8.87254249510608E-02
DEBUG_STATS_RL:                Vvel (DYNAMICS)  max=  1.29340223246255E-01
DEBUG_STATS_RL:                Vvel (DYNAMICS) mean=  8.59945334891192E-04
DEBUG_STATS_RL:                Vvel (DYNAMICS) S.D.=  1.27562237215060E-02
DEBUG_STATS_RL:                Wvel (DYNAMICS)  min= -6.24021469919945E-05
DEBUG_STATS_RL:                Wvel (DYNAMICS)  max=  1.22646723796505E-04
DEBUG_STATS_RL:                Wvel (DYNAMICS) mean= -3.62655370991086E-08
DEBUG_STATS_RL:                Wvel (DYNAMICS) S.D.=  8.13404505352442E-06
DEBUG_STATS_RL:               Theta (DYNAMICS)  min= -1.92633882156738E+00
DEBUG_STATS_RL:               Theta (DYNAMICS)  max=  3.12901284514768E+01
DEBUG_STATS_RL:               Theta (DYNAMICS) mean=  3.22953774860427E+00
DEBUG_STATS_RL:               Theta (DYNAMICS) S.D.=  5.88902351817459E+00
DEBUG_STATS_RL:                Salt (DYNAMICS)  min=  9.99999999999996E-03
DEBUG_STATS_RL:                Salt (DYNAMICS)  max=  3.74802316333550E+01
DEBUG_STATS_RL:                Salt (DYNAMICS) mean=  1.88547055309029E+01
DEBUG_STATS_RL:                Salt (DYNAMICS) S.D.=  1.73002720718194E+01
DEBUG_STATS_RL:                  Gu (DYNAMICS)  min= -1.34202324528855E-01
DEBUG_STATS_RL:                  Gu (DYNAMICS)  max=  1.33368279996478E-01
DEBUG_STATS_RL:                  Gu (DYNAMICS) mean=  5.89385321806267E-03
DEBUG_STATS_RL:                  Gu (DYNAMICS) S.D.=  2.26285657183161E-02
DEBUG_STATS_RL:                  Gv (DYNAMICS)  min= -8.81619663400763E-02
DEBUG_STATS_RL:                  Gv (DYNAMICS)  max=  1.29254675201393E-01
DEBUG_STATS_RL:                  Gv (DYNAMICS) mean=  3.49057421585959E-03
DEBUG_STATS_RL:                  Gv (DYNAMICS) S.D.=  1.43328653490898E-02
DEBUG_STATS_RL:               GuNm1 (DYNAMICS)  min= -9.44931234301358E-06
DEBUG_STATS_RL:               GuNm1 (DYNAMICS)  max=  1.02632634170806E-05
DEBUG_STATS_RL:               GuNm1 (DYNAMICS) mean=  1.65323728049906E-08
DEBUG_STATS_RL:               GuNm1 (DYNAMICS) S.D.=  1.22910918067367E-06
DEBUG_STATS_RL:               GvNm1 (DYNAMICS)  min= -9.30642950488642E-06
DEBUG_STATS_RL:               GvNm1 (DYNAMICS)  max=  1.50042330561801E-05
DEBUG_STATS_RL:               GvNm1 (DYNAMICS) mean=  7.41600674733657E-07
DEBUG_STATS_RL:               GvNm1 (DYNAMICS) S.D.=  2.60280763738439E-06
DEBUG_STATS_RL:               GtNm1 (DYNAMICS)  min= -2.81026440021790E-06
DEBUG_STATS_RL:               GtNm1 (DYNAMICS)  max=  1.82499098837066E-06
DEBUG_STATS_RL:               GtNm1 (DYNAMICS) mean= -2.50526564766133E-09
DEBUG_STATS_RL:               GtNm1 (DYNAMICS) S.D.=  1.27395899284976E-07
DEBUG_STATS_RL:               GsNm1 (DYNAMICS)  min= -3.74854150210406E-07
DEBUG_STATS_RL:               GsNm1 (DYNAMICS)  max=  2.40927026018600E-07
DEBUG_STATS_RL:               GsNm1 (DYNAMICS) mean= -2.37407335902958E-10
DEBUG_STATS_RL:               GsNm1 (DYNAMICS) S.D.=  1.25062340232899E-08
DEBUG_STATS_RL:    cg2d_b (SOLVE_FOR_PRESSURE)  min= -2.83457235041818E+04
DEBUG_STATS_RL:    cg2d_b (SOLVE_FOR_PRESSURE)  max=  3.13035781724116E+04
DEBUG_STATS_RL:    cg2d_b (SOLVE_FOR_PRESSURE) mean=  5.60984531515361E+00
DEBUG_STATS_RL:    cg2d_b (SOLVE_FOR_PRESSURE) S.D.=  4.02027714014211E+03
 cg2d: Sum(rhs),rhsMax =   4.14866052470242E-01  2.05610282736906E+00
(PID.TID 0000.0001)  cg2d: iter=     1 ; resid.=  5.29118217225030E-02
(PID.TID 0000.0001)  cg2d: iter=     2 ; resid.=  3.27418701974831E-02
(PID.TID 0000.0001)  cg2d: iter=     3 ; resid.=  2.68371096321314E-02
(PID.TID 0000.0001)  cg2d: iter=     4 ; resid.=  2.40319334764821E-02
(PID.TID 0000.0001)  cg2d: iter=     5 ; resid.=  1.77549305573923E-02
(PID.TID 0000.0001)  cg2d: iter=     6 ; resid.=  1.53727022797848E-02
(PID.TID 0000.0001)  cg2d: iter=     7 ; resid.=  1.25087302161009E-02
(PID.TID 0000.0001)  cg2d: iter=     8 ; resid.=  1.11461726697466E-02
(PID.TID 0000.0001)  cg2d: iter=     9 ; resid.=  9.54607963502441E-03
(PID.TID 0000.0001)  cg2d: iter=    10 ; resid.=  7.95172355904820E-03
(PID.TID 0000.0001)  cg2d: iter=    11 ; resid.=  6.98314538564187E-03
(PID.TID 0000.0001)  cg2d: iter=    12 ; resid.=  6.00434205370860E-03
(PID.TID 0000.0001)  cg2d: iter=    13 ; resid.=  4.82196944045900E-03
(PID.TID 0000.0001)  cg2d: iter=    14 ; resid.=  4.03489258680795E-03
(PID.TID 0000.0001)  cg2d: iter=    15 ; resid.=  3.36099397796597E-03
(PID.TID 0000.0001)  cg2d: iter=    16 ; resid.=  2.71212317889224E-03
(PID.TID 0000.0001)  cg2d: iter=    17 ; resid.=  2.42319823102574E-03
(PID.TID 0000.0001)  cg2d: iter=    18 ; resid.=  2.06930515618805E-03
(PID.TID 0000.0001)  cg2d: iter=    19 ; resid.=  1.87726066046604E-03
(PID.TID 0000.0001)  cg2d: iter=    20 ; resid.=  1.55396393534741E-03
(PID.TID 0000.0001)  cg2d: iter=    21 ; resid.=  1.36069131096538E-03
(PID.TID 0000.0001)  cg2d: iter=    22 ; resid.=  1.21006679588329E-03
(PID.TID 0000.0001)  cg2d: iter=    23 ; resid.=  9.86564617985270E-04
(PID.TID 0000.0001)  cg2d: iter=    24 ; resid.=  8.54130183204299E-04
(PID.TID 0000.0001)  cg2d: iter=    25 ; resid.=  6.63161470815077E-04
(PID.TID 0000.0001)  cg2d: iter=    26 ; resid.=  5.17760387752615E-04
(PID.TID 0000.0001)  cg2d: iter=    27 ; resid.=  4.36778462922892E-04
(PID.TID 0000.0001)  cg2d: iter=    28 ; resid.=  3.55476750683048E-04
(PID.TID 0000.0001)  cg2d: iter=    29 ; resid.=  2.81227030542061E-04
(PID.TID 0000.0001)  cg2d: iter=    30 ; resid.=  2.25413673124519E-04
(PID.TID 0000.0001)  cg2d: iter=    31 ; resid.=  2.04436438659307E-04
(PID.TID 0000.0001)  cg2d: iter=    32 ; resid.=  1.69080166736732E-04
(PID.TID 0000.0001)  cg2d: iter=    33 ; resid.=  1.29925370019133E-04
(PID.TID 0000.0001)  cg2d: iter=    34 ; resid.=  1.13017427194954E-04
(PID.TID 0000.0001)  cg2d: iter=    35 ; resid.=  9.40635667646126E-05
(PID.TID 0000.0001)  cg2d: iter=    36 ; resid.=  8.13606479209955E-05
(PID.TID 0000.0001)  cg2d: iter=    37 ; resid.=  7.23525734035841E-05
(PID.TID 0000.0001)  cg2d: iter=    38 ; resid.=  5.90273196943482E-05
(PID.TID 0000.0001)  cg2d: iter=    39 ; resid.=  4.75178942443566E-05
(PID.TID 0000.0001)  cg2d: iter=    40 ; resid.=  3.87690089163189E-05
(PID.TID 0000.0001)  cg2d: iter=    41 ; resid.=  3.21767784949302E-05
(PID.TID 0000.0001)  cg2d: iter=    42 ; resid.=  2.96606188275124E-05
(PID.TID 0000.0001)  cg2d: iter=    43 ; resid.=  2.78963342533359E-05
(PID.TID 0000.0001)  cg2d: iter=    44 ; resid.=  2.32408934627524E-05
(PID.TID 0000.0001)  cg2d: iter=    45 ; resid.=  1.84238825509388E-05
(PID.TID 0000.0001)  cg2d: iter=    46 ; resid.=  1.43288212785403E-05
(PID.TID 0000.0001)  cg2d: iter=    47 ; resid.=  1.18852062446915E-05
(PID.TID 0000.0001)  cg2d: iter=    48 ; resid.=  1.02070055568521E-05
(PID.TID 0000.0001)  cg2d: iter=    49 ; resid.=  8.38564426451996E-06
(PID.TID 0000.0001)  cg2d: iter=    50 ; resid.=  6.12279992393461E-06
(PID.TID 0000.0001)  cg2d: iter=    51 ; resid.=  4.48766339767723E-06
(PID.TID 0000.0001)  cg2d: iter=    52 ; resid.=  3.48825701588036E-06
(PID.TID 0000.0001)  cg2d: iter=    53 ; resid.=  2.86301974790116E-06
(PID.TID 0000.0001)  cg2d: iter=    54 ; resid.=  2.45129506091165E-06
(PID.TID 0000.0001)  cg2d: iter=    55 ; resid.=  2.06828566025568E-06
(PID.TID 0000.0001)  cg2d: iter=    56 ; resid.=  1.79041609963710E-06
(PID.TID 0000.0001)  cg2d: iter=    57 ; resid.=  1.53952673067240E-06
(PID.TID 0000.0001)  cg2d: iter=    58 ; resid.=  1.23165814146417E-06
(PID.TID 0000.0001)  cg2d: iter=    59 ; resid.=  9.52784216091734E-07
(PID.TID 0000.0001)  cg2d: iter=    60 ; resid.=  7.80812186057111E-07
(PID.TID 0000.0001)  cg2d: iter=    61 ; resid.=  6.21700960177214E-07
(PID.TID 0000.0001)  cg2d: iter=    62 ; resid.=  4.74764032931466E-07
(PID.TID 0000.0001)  cg2d: iter=    63 ; resid.=  4.04000913702491E-07
(PID.TID 0000.0001)  cg2d: iter=    64 ; resid.=  3.78087074161028E-07
(PID.TID 0000.0001)  cg2d: iter=    65 ; resid.=  3.45773971522676E-07
(PID.TID 0000.0001)  cg2d: iter=    66 ; resid.=  2.99465480257080E-07
(PID.TID 0000.0001)  cg2d: iter=    67 ; resid.=  2.65566317593428E-07
(PID.TID 0000.0001)  cg2d: iter=    68 ; resid.=  2.11022338352288E-07
(PID.TID 0000.0001)  cg2d: iter=    69 ; resid.=  1.60727727111425E-07
(PID.TID 0000.0001)  cg2d: iter=    70 ; resid.=  1.18853681343563E-07
(PID.TID 0000.0001)  cg2d: iter=    71 ; resid.=  9.64392040379268E-08
(PID.TID 0000.0001)  cg2d: iter=    72 ; resid.=  7.40844766959549E-08
(PID.TID 0000.0001)  cg2d: iter=    73 ; resid.=  6.26734710381860E-08
(PID.TID 0000.0001)  cg2d: iter=    74 ; resid.=  4.95752862084976E-08
(PID.TID 0000.0001)  cg2d: iter=    75 ; resid.=  3.71079155500206E-08
(PID.TID 0000.0001)  cg2d: iter=    76 ; resid.=  2.81660183303445E-08
(PID.TID 0000.0001)  cg2d: iter=    77 ; resid.=  2.39172288900262E-08
(PID.TID 0000.0001)  cg2d: iter=    78 ; resid.=  2.13358540222052E-08
(PID.TID 0000.0001)  cg2d: iter=    79 ; resid.=  1.89996609933071E-08
(PID.TID 0000.0001)  cg2d: iter=    80 ; resid.=  1.65792977493751E-08
(PID.TID 0000.0001)  cg2d: iter=    81 ; resid.=  1.48589566908078E-08
(PID.TID 0000.0001)  cg2d: iter=    82 ; resid.=  1.28535471567729E-08
(PID.TID 0000.0001)  cg2d: iter=    83 ; resid.=  1.02597340968335E-08
(PID.TID 0000.0001)  cg2d: iter=    84 ; resid.=  7.66228826237714E-09
(PID.TID 0000.0001)  cg2d: iter=    85 ; resid.=  5.46353314151307E-09
(PID.TID 0000.0001)  cg2d: iter=    86 ; resid.=  4.01521973762260E-09
(PID.TID 0000.0001)  cg2d: iter=    87 ; resid.=  3.07698557191379E-09
(PID.TID 0000.0001)  cg2d: iter=    88 ; resid.=  2.31209464781112E-09
(PID.TID 0000.0001)  cg2d: iter=    89 ; resid.=  1.81337103022854E-09
(PID.TID 0000.0001)  cg2d: iter=    90 ; resid.=  1.46972678351820E-09
(PID.TID 0000.0001)  cg2d: iter=    91 ; resid.=  1.19708425156633E-09
(PID.TID 0000.0001)  cg2d: iter=    92 ; resid.=  9.29386608301042E-10
(PID.TID 0000.0001)  cg2d: iter=    93 ; resid.=  7.27402463350404E-10
(PID.TID 0000.0001)  cg2d: iter=    94 ; resid.=  5.66363431809342E-10
(PID.TID 0000.0001)  cg2d: iter=    95 ; resid.=  4.74446916651753E-10
(PID.TID 0000.0001)  cg2d: iter=    96 ; resid.=  3.69094365973354E-10
(PID.TID 0000.0001)  cg2d: iter=    97 ; resid.=  2.70821238277469E-10
(PID.TID 0000.0001)  cg2d: iter=    98 ; resid.=  2.02893872732350E-10
(PID.TID 0000.0001)  cg2d: iter=    99 ; resid.=  1.45531514429931E-10
(PID.TID 0000.0001)  cg2d: iter=   100 ; resid.=  1.13650680142079E-10
(PID.TID 0000.0001)  cg2d: iter=   101 ; resid.=  8.35519998788699E-11
(PID.TID 0000.0001)  cg2d: iter=   102 ; resid.=  5.83911298193552E-11
(PID.TID 0000.0001)  cg2d: iter=   103 ; resid.=  4.35627293930422E-11
(PID.TID 0000.0001)  cg2d: iter=   104 ; resid.=  3.54371312111467E-11
(PID.TID 0000.0001)  cg2d: iter=   105 ; resid.=  3.15102367381498E-11
(PID.TID 0000.0001)  cg2d: iter=   106 ; resid.=  2.61671647504322E-11
(PID.TID 0000.0001)  cg2d: iter=   107 ; resid.=  2.41625169536258E-11
(PID.TID 0000.0001)  cg2d: iter=   108 ; resid.=  2.04721985107788E-11
(PID.TID 0000.0001)  cg2d: iter=   109 ; resid.=  1.55309301874654E-11
(PID.TID 0000.0001)  cg2d: iter=   110 ; resid.=  1.22799650791120E-11
(PID.TID 0000.0001)  cg2d: iter=   111 ; resid.=  1.08342677108393E-11
(PID.TID 0000.0001)  cg2d: iter=   112 ; resid.=  9.68072968058706E-12
(PID.TID 0000.0001)  cg2d: iter=   113 ; resid.=  7.18515197844193E-12
(PID.TID 0000.0001)  cg2d: iter=   114 ; resid.=  5.33441885104268E-12
(PID.TID 0000.0001)  cg2d: iter=   115 ; resid.=  4.29503198925157E-12
(PID.TID 0000.0001)  cg2d: iter=   116 ; resid.=  3.20208082454019E-12
(PID.TID 0000.0001)  cg2d: iter=   117 ; resid.=  2.35156162213152E-12
(PID.TID 0000.0001)  cg2d: iter=   118 ; resid.=  1.78541744760979E-12
(PID.TID 0000.0001)  cg2d: iter=   119 ; resid.=  1.34042960395855E-12
(PID.TID 0000.0001)  cg2d: iter=   120 ; resid.=  9.88865446290514E-13
(PID.TID 0000.0001)  cg2d: iter=   121 ; resid.=  7.45713546364338E-13
(PID.TID 0000.0001)  cg2d: iter=   122 ; resid.=  5.39578595833472E-13
(PID.TID 0000.0001)  cg2d: iter=   123 ; resid.=  3.91136687928163E-13
(PID.TID 0000.0001)  cg2d: iter=   124 ; resid.=  2.96676716934586E-13
(PID.TID 0000.0001)  cg2d: iter=   125 ; resid.=  2.48950138442495E-13
(PID.TID 0000.0001)  cg2d: iter=   126 ; resid.=  2.16385361438592E-13
(PID.TID 0000.0001)  cg2d: iter=   127 ; resid.=  1.57655185900186E-13
(PID.TID 0000.0001)  cg2d: iter=   128 ; resid.=  1.16221613487794E-13
(PID.TID 0000.0001)  cg2d: iter=   129 ; resid.=  8.47418468873010E-14
DEBUG_STATS_RL:    cg2d_x (SOLVE_FOR_PRESSURE)  min= -1.79118755156211E+01
DEBUG_STATS_RL:    cg2d_x (SOLVE_FOR_PRESSURE)  max=  8.24019863359702E+00
DEBUG_STATS_RL:    cg2d_x (SOLVE_FOR_PRESSURE) mean= -1.83856057133886E+00
DEBUG_STATS_RL:    cg2d_x (SOLVE_FOR_PRESSURE) S.D.=  7.03925035871663E+00
(PID.TID 0000.0001)      cg2d_init_res =   1.69955157277594E-01
(PID.TID 0000.0001)      cg2d_iters(min,last) =      -1     129
(PID.TID 0000.0001)      cg2d_last_res =   8.47418468873010E-14
(PID.TID 0000.0001) // =======================================================
(PID.TID 0000.0001) // Begin MONITOR dynamic field statistics
(PID.TID 0000.0001) // =======================================================
(PID.TID 0000.0001) %MON time_tsnumber                =                    96
(PID.TID 0000.0001) %MON time_secondsf                =   8.2944000000000E+06
(PID.TID 0000.0001) %MON dynstat_eta_max              =   8.3997947335336E-01
(PID.TID 0000.0001) %MON dynstat_eta_min              =  -1.8258792574535E+00
(PID.TID 0000.0001) %MON dynstat_eta_mean             =  -5.8531779885081E-03
(PID.TID 0000.0001) %MON dynstat_eta_sd               =   6.1333022727433E-01
(PID.TID 0000.0001) %MON dynstat_eta_del2             =   2.5464422809716E-03
(PID.TID 0000.0001) %MON dynstat_uvel_max             =   1.2677619290155E-01
(PID.TID 0000.0001) %MON dynstat_uvel_min             =  -1.3461208532335E-01
(PID.TID 0000.0001) %MON dynstat_uvel_mean            =   2.4594981383488E-03
(PID.TID 0000.0001) %MON dynstat_uvel_sd              =   1.4117141358387E-02
(PID.TID 0000.0001) %MON dynstat_uvel_del2            =   9.3392078810834E-05
(PID.TID 0000.0001) %MON dynstat_vvel_max             =   1.2713025818678E-01
(PID.TID 0000.0001) %MON dynstat_vvel_min             =  -8.9647984444176E-02
(PID.TID 0000.0001) %MON dynstat_vvel_mean            =   4.1345119295454E-05
(PID.TID 0000.0001) %MON dynstat_vvel_sd              =   7.8268612046520E-03
(PID.TID 0000.0001) %MON dynstat_vvel_del2            =   7.5047631992894E-05
(PID.TID 0000.0001) %MON dynstat_wvel_max             =   1.2114564584731E-04
(PID.TID 0000.0001) %MON dynstat_wvel_min             =  -6.3146195647571E-05
(PID.TID 0000.0001) %MON dynstat_wvel_mean            =  -1.1938668360744E-22
(PID.TID 0000.0001) %MON dynstat_wvel_sd              =   9.1940053027981E-06
(PID.TID 0000.0001) %MON dynstat_wvel_del2            =   9.0284500283495E-08
(PID.TID 0000.0001) %MON dynstat_theta_max            =   3.1290128451477E+01
(PID.TID 0000.0001) %MON dynstat_theta_min            =  -1.9263388215674E+00
(PID.TID 0000.0001) %MON dynstat_theta_mean           =   3.6343086491592E+00
(PID.TID 0000.0001) %MON dynstat_theta_sd             =   4.4290743957967E+00
(PID.TID 0000.0001) %MON dynstat_theta_del2           =   4.8074089362052E-03
(PID.TID 0000.0001) %MON dynstat_salt_max             =   3.7480231633355E+01
(PID.TID 0000.0001) %MON dynstat_salt_min             =   2.9972574204744E+01
(PID.TID 0000.0001) %MON dynstat_salt_mean            =   3.4727996203136E+01
(PID.TID 0000.0001) %MON dynstat_salt_sd              =   2.9668190470894E-01
(PID.TID 0000.0001) %MON dynstat_salt_del2            =   9.9969214949616E-04
(PID.TID 0000.0001) %MON dynstat_sst_max              =   3.1290128451477E+01
(PID.TID 0000.0001) %MON dynstat_sst_min              =  -1.9263388215674E+00
(PID.TID 0000.0001) %MON dynstat_sst_mean             =   1.9039424948018E+01
(PID.TID 0000.0001) %MON dynstat_sst_sd               =   9.2975303527128E+00
(PID.TID 0000.0001) %MON dynstat_sst_del2             =   2.9415622384294E-02
(PID.TID 0000.0001) %MON dynstat_sss_max              =   3.7480231633355E+01
(PID.TID 0000.0001) %MON dynstat_sss_min              =   2.9972574204744E+01
(PID.TID 0000.0001) %MON dynstat_sss_mean             =   3.4845931874291E+01
(PID.TID 0000.0001) %MON dynstat_sss_sd               =   9.9335323088014E-01
(PID.TID 0000.0001) %MON dynstat_sss_del2             =   8.3609740562409E-03
(PID.TID 0000.0001) %MON forcing_qnet_max             =   1.8040299479167E+02
(PID.TID 0000.0001) %MON forcing_qnet_min             =  -1.5529566446940E+02
(PID.TID 0000.0001) %MON forcing_qnet_mean            =   6.7566258924804E-01
(PID.TID 0000.0001) %MON forcing_qnet_sd              =   4.0811835969263E+01
(PID.TID 0000.0001) %MON forcing_qnet_del2            =   7.8641898136812E-01
(PID.TID 0000.0001) %MON forcing_qsw_max              =   0.0000000000000E+00
(PID.TID 0000.0001) %MON forcing_qsw_min              =   0.0000000000000E+00
(PID.TID 0000.0001) %MON forcing_qsw_mean             =   0.0000000000000E+00
(PID.TID 0000.0001) %MON forcing_qsw_sd               =   0.0000000000000E+00
(PID.TID 0000.0001) %MON forcing_qsw_del2             =   0.0000000000000E+00
(PID.TID 0000.0001) %MON forcing_empmr_max            =   6.7185401538457E-05
(PID.TID 0000.0001) %MON forcing_empmr_min            =  -8.3561339181415E-05
(PID.TID 0000.0001) %MON forcing_empmr_mean           =   1.0180375712738E-07
(PID.TID 0000.0001) %MON forcing_empmr_sd             =   2.5504926925635E-05
(PID.TID 0000.0001) %MON forcing_empmr_del2           =   3.6682577382862E-07
(PID.TID 0000.0001) %MON forcing_fu_max               =   3.4542939066887E-01
(PID.TID 0000.0001) %MON forcing_fu_min               =  -4.0721786022186E-01
(PID.TID 0000.0001) %MON forcing_fu_mean              =   1.7912887361731E-02
(PID.TID 0000.0001) %MON forcing_fu_sd                =   1.0095571358910E-01
(PID.TID 0000.0001) %MON forcing_fu_del2              =   7.8746887246203E-04
(PID.TID 0000.0001) %MON forcing_fv_max               =   1.8138032158216E-01
(PID.TID 0000.0001) %MON forcing_fv_min               =  -1.4448850850264E-01
(PID.TID 0000.0001) %MON forcing_fv_mean              =  -6.8000419925840E-03
(PID.TID 0000.0001) %MON forcing_fv_sd                =   3.8744507410474E-02
(PID.TID 0000.0001) %MON forcing_fv_del2              =   4.1826418135410E-04
(PID.TID 0000.0001) %MON trAdv_CFL_u_max              =   4.5747713006701E-02
(PID.TID 0000.0001) %MON trAdv_CFL_v_max              =   2.5087892942046E-02
(PID.TID 0000.0001) %MON trAdv_CFL_w_max              =   2.6438537392016E-02
(PID.TID 0000.0001) %MON advcfl_uvel_max              =   4.5950691282080E-02
(PID.TID 0000.0001) %MON advcfl_vvel_max              =   2.4699370241482E-02
(PID.TID 0000.0001) %MON advcfl_wvel_max              =   2.7972164965813E-02
(PID.TID 0000.0001) %MON advcfl_W_hf_max              =   3.0028941801534E-02
(PID.TID 0000.0001) %MON pe_b_mean                    =   4.8140377237653E-04
(PID.TID 0000.0001) %MON ke_max                       =   1.0680684829043E-02
(PID.TID 0000.0001) %MON ke_mean                      =   1.2079330402471E-04
(PID.TID 0000.0001) %MON ke_vol                       =   1.3226782436723E+18
(PID.TID 0000.0001) %MON vort_r_min                   =  -3.6494146607129E-07
(PID.TID 0000.0001) %MON vort_r_max                   =   3.9077781998730E-07
(PID.TID 0000.0001) %MON vort_a_mean                  =  -2.5274807145541E-05
(PID.TID 0000.0001) %MON vort_a_sd                    =   7.3604672296152E-05
(PID.TID 0000.0001) %MON vort_p_mean                  =  -3.1845655482071E-05
(PID.TID 0000.0001) %MON vort_p_sd                    =   1.3162490197331E-04
(PID.TID 0000.0001) %MON surfExpan_theta_mean         =   1.1626164107975E-08
(PID.TID 0000.0001) %MON surfExpan_salt_mean          =   2.9621261476368E-08
(PID.TID 0000.0001) // =======================================================
(PID.TID 0000.0001) // End MONITOR dynamic field statistics
(PID.TID 0000.0001) // =======================================================
 EXTERNAL_FIELDS_LOAD,        96 : iP,iLd,i0,i1=    3    4    3    4 ; Wght=  0.3000000000  0.7000000000
 EXTERNAL_FIELDS_LOAD: (fu0,1),fu,fv= -2.7199E-02 -3.7252E-02 -3.4236E-02 -2.4825E-02
 EXTERNAL_FIELDS_LOAD: SST,SSS,Q,E-P= -3.0436E-02  3.4572E+01  1.3750E+02  8.1626E-06
DEBUG_STATS_RL:          Uvel (THERMODYNAMICS)  min= -1.34612085323354E-01
DEBUG_STATS_RL:          Uvel (THERMODYNAMICS)  max=  1.26776192901551E-01
DEBUG_STATS_RL:          Uvel (THERMODYNAMICS) mean=  5.94575540550236E-03
DEBUG_STATS_RL:          Uvel (THERMODYNAMICS) S.D.=  2.22379487544309E-02
DEBUG_STATS_RL:          Vvel (THERMODYNAMICS)  min= -8.96479844441759E-02
DEBUG_STATS_RL:          Vvel (THERMODYNAMICS)  max=  1.27130258186782E-01
DEBUG_STATS_RL:          Vvel (THERMODYNAMICS) mean=  8.50260588930818E-04
DEBUG_STATS_RL:          Vvel (THERMODYNAMICS) S.D.=  1.26979602155098E-02
DEBUG_STATS_RL:          Wvel (THERMODYNAMICS)  min= -6.31461956475705E-05
DEBUG_STATS_RL:          Wvel (THERMODYNAMICS)  max=  1.21145645847307E-04
DEBUG_STATS_RL:          Wvel (THERMODYNAMICS) mean= -3.55871155130638E-08
DEBUG_STATS_RL:          Wvel (THERMODYNAMICS) S.D.=  8.06694785902849E-06
DEBUG_STATS_RL:         Theta (THERMODYNAMICS)  min= -1.92543090833022E+00
DEBUG_STATS_RL:         Theta (THERMODYNAMICS)  max=  3.13007264331296E+01
DEBUG_STATS_RL:         Theta (THERMODYNAMICS) mean=  3.22935237366046E+00
DEBUG_STATS_RL:         Theta (THERMODYNAMICS) S.D.=  5.88895987633471E+00
DEBUG_STATS_RL:          Salt (THERMODYNAMICS)  min=  9.99999999999996E-03
DEBUG_STATS_RL:          Salt (THERMODYNAMICS)  max=  3.74811131916292E+01
DEBUG_STATS_RL:          Salt (THERMODYNAMICS) mean=  1.88546984839961E+01
DEBUG_STATS_RL:          Salt (THERMODYNAMICS) S.D.=  1.73002664198461E+01
DEBUG_STATS_RL:         GtNm1 (THERMODYNAMICS)  min= -2.73053922772787E-06
DEBUG_STATS_RL:         GtNm1 (THERMODYNAMICS)  max=  1.87649605421607E-06
DEBUG_STATS_RL:         GtNm1 (THERMODYNAMICS) mean= -2.64872708903828E-09
DEBUG_STATS_RL:         GtNm1 (THERMODYNAMICS) S.D.=  1.27092701944769E-07
DEBUG_STATS_RL:         GsNm1 (THERMODYNAMICS)  min= -3.44621306371208E-07
DEBUG_STATS_RL:         GsNm1 (THERMODYNAMICS)  max=  2.16232453728578E-07
DEBUG_STATS_RL:         GsNm1 (THERMODYNAMICS) mean= -2.25815189450876E-10
DEBUG_STATS_RL:         GsNm1 (THERMODYNAMICS) S.D.=  1.23643055625806E-08
DEBUG_STATS_RL:                EtaN (DYNAMICS)  min= -1.82587925745353E+00
DEBUG_STATS_RL:                EtaN (DYNAMICS)  max=  8.39979473353359E-01
DEBUG_STATS_RL:                EtaN (DYNAMICS) mean= -1.87416979749119E-01
DEBUG_STATS_RL:                EtaN (DYNAMICS) S.D.=  7.17558650225960E-01
DEBUG_STATS_RL:                Uvel (DYNAMICS)  min= -1.34612085323354E-01
DEBUG_STATS_RL:                Uvel (DYNAMICS)  max=  1.26776192901551E-01
DEBUG_STATS_RL:                Uvel (DYNAMICS) mean=  5.94575540550236E-03
DEBUG_STATS_RL:                Uvel (DYNAMICS) S.D.=  2.22379487544309E-02
DEBUG_STATS_RL:                Vvel (DYNAMICS)  min= -8.96479844441759E-02
DEBUG_STATS_RL:                Vvel (DYNAMICS)  max=  1.27130258186782E-01
DEBUG_STATS_RL:                Vvel (DYNAMICS) mean=  8.50260588930818E-04
DEBUG_STATS_RL:                Vvel (DYNAMICS) S.D.=  1.26979602155098E-02
DEBUG_STATS_RL:                Wvel (DYNAMICS)  min= -6.31461956475705E-05
DEBUG_STATS_RL:                Wvel (DYNAMICS)  max=  1.21145645847307E-04
DEBUG_STATS_RL:                Wvel (DYNAMICS) mean= -3.55871155130638E-08
DEBUG_STATS_RL:                Wvel (DYNAMICS) S.D.=  8.06694785902849E-06
DEBUG_STATS_RL:               Theta (DYNAMICS)  min= -1.92543090833022E+00
DEBUG_STATS_RL:               Theta (DYNAMICS)  max=  3.13007264331296E+01
DEBUG_STATS_RL:               Theta (DYNAMICS) mean=  3.22935237366046E+00
DEBUG_STATS_RL:               Theta (DYNAMICS) S.D.=  5.88895987633471E+00
DEBUG_STATS_RL:                Salt (DYNAMICS)  min=  9.99999999999996E-03
DEBUG_STATS_RL:                Salt (DYNAMICS)  max=  3.74811131916292E+01
DEBUG_STATS_RL:                Salt (DYNAMICS) mean=  1.88546984839961E+01
DEBUG_STATS_RL:                Salt (DYNAMICS) S.D.=  1.73002664198461E+01
DEBUG_STATS_RL:                  Gu (DYNAMICS)  min= -1.33618182244699E-01
DEBUG_STATS_RL:                  Gu (DYNAMICS)  max=  1.33757264271897E-01
DEBUG_STATS_RL:                  Gu (DYNAMICS) mean=  5.91066284412972E-03
DEBUG_STATS_RL:                  Gu (DYNAMICS) S.D.=  2.26670891458729E-02
DEBUG_STATS_RL:                  Gv (DYNAMICS)  min= -8.90554906658926E-02
DEBUG_STATS_RL:                  Gv (DYNAMICS)  max=  1.27017089961938E-01
DEBUG_STATS_RL:                  Gv (DYNAMICS) mean=  3.49645530845749E-03
DEBUG_STATS_RL:                  Gv (DYNAMICS) S.D.=  1.42841783976052E-02
DEBUG_STATS_RL:               GuNm1 (DYNAMICS)  min= -9.39765781610018E-06
DEBUG_STATS_RL:               GuNm1 (DYNAMICS)  max=  1.03061476732768E-05
DEBUG_STATS_RL:               GuNm1 (DYNAMICS) mean=  1.69279524493010E-08
DEBUG_STATS_RL:               GuNm1 (DYNAMICS) S.D.=  1.22980543673345E-06
DEBUG_STATS_RL:               GvNm1 (DYNAMICS)  min= -9.31941610333032E-06
DEBUG_STATS_RL:               GvNm1 (DYNAMICS)  max=  1.49792524508185E-05
DEBUG_STATS_RL:               GvNm1 (DYNAMICS) mean=  7.42107459531740E-07
DEBUG_STATS_RL:               GvNm1 (DYNAMICS) S.D.=  2.60252019627162E-06
DEBUG_STATS_RL:               GtNm1 (DYNAMICS)  min= -2.73053922772787E-06
DEBUG_STATS_RL:               GtNm1 (DYNAMICS)  max=  1.87649605421607E-06
DEBUG_STATS_RL:               GtNm1 (DYNAMICS) mean= -2.64872708903828E-09
DEBUG_STATS_RL:               GtNm1 (DYNAMICS) S.D.=  1.27092701944769E-07
DEBUG_STATS_RL:               GsNm1 (DYNAMICS)  min= -3.44621306371208E-07
DEBUG_STATS_RL:               GsNm1 (DYNAMICS)  max=  2.16232453728578E-07
DEBUG_STATS_RL:               GsNm1 (DYNAMICS) mean= -2.25815189450876E-10
DEBUG_STATS_RL:               GsNm1 (DYNAMICS) S.D.=  1.23643055625806E-08
DEBUG_STATS_RL:    cg2d_b (SOLVE_FOR_PRESSURE)  min= -2.82105182069431E+04
DEBUG_STATS_RL:    cg2d_b (SOLVE_FOR_PRESSURE)  max=  3.14071560506995E+04
DEBUG_STATS_RL:    cg2d_b (SOLVE_FOR_PRESSURE) mean=  5.61619460874381E+00
DEBUG_STATS_RL:    cg2d_b (SOLVE_FOR_PRESSURE) S.D.=  4.02329225729482E+03
 cg2d: Sum(rhs),rhsMax =   4.13965864921189E-01  2.06290609973709E+00
(PID.TID 0000.0001)  cg2d: iter=     1 ; resid.=  5.18447546323269E-02
(PID.TID 0000.0001)  cg2d: iter=     2 ; resid.=  3.15373154578130E-02
(PID.TID 0000.0001)  cg2d: iter=     3 ; resid.=  2.51137830184874E-02
(PID.TID 0000.0001)  cg2d: iter=     4 ; resid.=  2.18997954307062E-02
(PID.TID 0000.0001)  cg2d: iter=     5 ; resid.=  1.56632436809049E-02
(PID.TID 0000.0001)  cg2d: iter=     6 ; resid.=  1.27016741470534E-02
(PID.TID 0000.0001)  cg2d: iter=     7 ; resid.=  9.93192236905495E-03
(PID.TID 0000.0001)  cg2d: iter=     8 ; resid.=  8.69093870300232E-03
(PID.TID 0000.0001)  cg2d: iter=     9 ; resid.=  7.44011553792766E-03
(PID.TID 0000.0001)  cg2d: iter=    10 ; resid.=  6.20282445840659E-03
(PID.TID 0000.0001)  cg2d: iter=    11 ; resid.=  5.53993920092318E-03
(PID.TID 0000.0001)  cg2d: iter=    12 ; resid.=  4.95648851017124E-03
(PID.TID 0000.0001)  cg2d: iter=    13 ; resid.=  4.22088790926651E-03
(PID.TID 0000.0001)  cg2d: iter=    14 ; resid.=  3.67263482770786E-03
(PID.TID 0000.0001)  cg2d: iter=    15 ; resid.=  3.20001006415006E-03
(PID.TID 0000.0001)  cg2d: iter=    16 ; resid.=  2.59461400732770E-03
(PID.TID 0000.0001)  cg2d: iter=    17 ; resid.=  2.28913072426347E-03
(PID.TID 0000.0001)  cg2d: iter=    18 ; resid.=  1.92495648572016E-03
(PID.TID 0000.0001)  cg2d: iter=    19 ; resid.=  1.72284782631869E-03
(PID.TID 0000.0001)  cg2d: iter=    20 ; resid.=  1.40416308968149E-03
(PID.TID 0000.0001)  cg2d: iter=    21 ; resid.=  1.20786868202588E-03
(PID.TID 0000.0001)  cg2d: iter=    22 ; resid.=  1.06546499560472E-03
(PID.TID 0000.0001)  cg2d: iter=    23 ; resid.=  8.72139700595224E-04
(PID.TID 0000.0001)  cg2d: iter=    24 ; resid.=  7.56509613395582E-04
(PID.TID 0000.0001)  cg2d: iter=    25 ; resid.=  5.78597604509285E-04
(PID.TID 0000.0001)  cg2d: iter=    26 ; resid.=  4.51027156937705E-04
(PID.TID 0000.0001)  cg2d: iter=    27 ; resid.=  3.80380116692419E-04
(PID.TID 0000.0001)  cg2d: iter=    28 ; resid.=  3.16952724328619E-04
(PID.TID 0000.0001)  cg2d: iter=    29 ; resid.=  2.50956034711712E-04
(PID.TID 0000.0001)  cg2d: iter=    30 ; resid.=  1.93556146124106E-04
(PID.TID 0000.0001)  cg2d: iter=    31 ; resid.=  1.68856447346038E-04
(PID.TID 0000.0001)  cg2d: iter=    32 ; resid.=  1.41244520527105E-04
(PID.TID 0000.0001)  cg2d: iter=    33 ; resid.=  1.06916123770226E-04
(PID.TID 0000.0001)  cg2d: iter=    34 ; resid.=  8.80861881676294E-05
(PID.TID 0000.0001)  cg2d: iter=    35 ; resid.=  7.19433772756672E-05
(PID.TID 0000.0001)  cg2d: iter=    36 ; resid.=  6.14332382957262E-05
(PID.TID 0000.0001)  cg2d: iter=    37 ; resid.=  5.50439667217784E-05
(PID.TID 0000.0001)  cg2d: iter=    38 ; resid.=  4.51806378128725E-05
(PID.TID 0000.0001)  cg2d: iter=    39 ; resid.=  3.52879528562391E-05
(PID.TID 0000.0001)  cg2d: iter=    40 ; resid.=  2.78051652728108E-05
(PID.TID 0000.0001)  cg2d: iter=    41 ; resid.=  2.20124208674823E-05
(PID.TID 0000.0001)  cg2d: iter=    42 ; resid.=  1.98427847199697E-05
(PID.TID 0000.0001)  cg2d: iter=    43 ; resid.=  1.87956896705361E-05
(PID.TID 0000.0001)  cg2d: iter=    44 ; resid.=  1.62109595717012E-05
(PID.TID 0000.0001)  cg2d: iter=    45 ; resid.=  1.30305312212127E-05
(PID.TID 0000.0001)  cg2d: iter=    46 ; resid.=  1.04366783555815E-05
(PID.TID 0000.0001)  cg2d: iter=    47 ; resid.=  8.93304573570045E-06
(PID.TID 0000.0001)  cg2d: iter=    48 ; resid.=  7.96297994369853E-06
(PID.TID 0000.0001)  cg2d: iter=    49 ; resid.=  6.77115593471646E-06
(PID.TID 0000.0001)  cg2d: iter=    50 ; resid.=  5.03830236081554E-06
(PID.TID 0000.0001)  cg2d: iter=    51 ; resid.=  3.63556906811896E-06
(PID.TID 0000.0001)  cg2d: iter=    52 ; resid.=  2.78188258435093E-06
(PID.TID 0000.0001)  cg2d: iter=    53 ; resid.=  2.19048874776818E-06
(PID.TID 0000.0001)  cg2d: iter=    54 ; resid.=  1.80816799735144E-06
(PID.TID 0000.0001)  cg2d: iter=    55 ; resid.=  1.48793922980936E-06
(PID.TID 0000.0001)  cg2d: iter=    56 ; resid.=  1.26016888705618E-06
(PID.TID 0000.0001)  cg2d: iter=    57 ; resid.=  1.10208961744939E-06
(PID.TID 0000.0001)  cg2d: iter=    58 ; resid.=  9.08830181621245E-07
(PID.TID 0000.0001)  cg2d: iter=    59 ; resid.=  7.08502766494098E-07
(PID.TID 0000.0001)  cg2d: iter=    60 ; resid.=  5.59987785377278E-07
(PID.TID 0000.0001)  cg2d: iter=    61 ; resid.=  4.33802799363530E-07
(PID.TID 0000.0001)  cg2d: iter=    62 ; resid.=  3.09506788266830E-07
(PID.TID 0000.0001)  cg2d: iter=    63 ; resid.=  2.37118871774020E-07
(PID.TID 0000.0001)  cg2d: iter=    64 ; resid.=  2.07121770584995E-07
(PID.TID 0000.0001)  cg2d: iter=    65 ; resid.=  1.88728932327873E-07
(PID.TID 0000.0001)  cg2d: iter=    66 ; resid.=  1.68500250864002E-07
(PID.TID 0000.0001)  cg2d: iter=    67 ; resid.=  1.57482591708284E-07
(PID.TID 0000.0001)  cg2d: iter=    68 ; resid.=  1.37283703576188E-07
(PID.TID 0000.0001)  cg2d: iter=    69 ; resid.=  1.14140820201945E-07
(PID.TID 0000.0001)  cg2d: iter=    70 ; resid.=  9.09387493483728E-08
(PID.TID 0000.0001)  cg2d: iter=    71 ; resid.=  7.74712593908160E-08
(PID.TID 0000.0001)  cg2d: iter=    72 ; resid.=  6.10073607857195E-08
(PID.TID 0000.0001)  cg2d: iter=    73 ; resid.=  5.22055596394021E-08
(PID.TID 0000.0001)  cg2d: iter=    74 ; resid.=  4.08959860928480E-08
(PID.TID 0000.0001)  cg2d: iter=    75 ; resid.=  3.03788039102247E-08
(PID.TID 0000.0001)  cg2d: iter=    76 ; resid.=  2.21358490903918E-08
(PID.TID 0000.0001)  cg2d: iter=    77 ; resid.=  1.73818222246385E-08
(PID.TID 0000.0001)  cg2d: iter=    78 ; resid.=  1.40231934347129E-08
(PID.TID 0000.0001)  cg2d: iter=    79 ; resid.=  1.13867027487094E-08
(PID.TID 0000.0001)  cg2d: iter=    80 ; resid.=  9.20925813956129E-09
(PID.TID 0000.0001)  cg2d: iter=    81 ; resid.=  8.11870420023353E-09
(PID.TID 0000.0001)  cg2d: iter=    82 ; resid.=  7.38150177361683E-09
(PID.TID 0000.0001)  cg2d: iter=    83 ; resid.=  6.38591816918758E-09
(PID.TID 0000.0001)  cg2d: iter=    84 ; resid.=  5.27361355033122E-09
(PID.TID 0000.0001)  cg2d: iter=    85 ; resid.=  4.06003405728519E-09
(PID.TID 0000.0001)  cg2d: iter=    86 ; resid.=  3.16170450726783E-09
(PID.TID 0000.0001)  cg2d: iter=    87 ; resid.=  2.55999031618936E-09
(PID.TID 0000.0001)  cg2d: iter=    88 ; resid.=  2.01836628963985E-09
(PID.TID 0000.0001)  cg2d: iter=    89 ; resid.=  1.61826412158982E-09
(PID.TID 0000.0001)  cg2d: iter=    90 ; resid.=  1.31056635580169E-09
(PID.TID 0000.0001)  cg2d: iter=    91 ; resid.=  1.06283108153810E-09
(PID.TID 0000.0001)  cg2d: iter=    92 ; resid.=  8.22440034315431E-10
(PID.TID 0000.0001)  cg2d: iter=    93 ; resid.=  6.50865403556726E-10
(PID.TID 0000.0001)  cg2d: iter=    94 ; resid.=  5.05817487432463E-10
(PID.TID 0000.0001)  cg2d: iter=    95 ; resid.=  4.13703945606675E-10
(PID.TID 0000.0001)  cg2d: iter=    96 ; resid.=  3.18745888885669E-10
(PID.TID 0000.0001)  cg2d: iter=    97 ; resid.=  2.35458135608536E-10
(PID.TID 0000.0001)  cg2d: iter=    98 ; resid.=  1.81531137928563E-10
(PID.TID 0000.0001)  cg2d: iter=    99 ; resid.=  1.32545760722852E-10
(PID.TID 0000.0001)  cg2d: iter=   100 ; resid.=  1.04218153523188E-10
(PID.TID 0000.0001)  cg2d: iter=   101 ; resid.=  7.66371089329149E-11
(PID.TID 0000.0001)  cg2d: iter=   102 ; resid.=  5.33419056060062E-11
(PID.TID 0000.0001)  cg2d: iter=   103 ; resid.=  3.94075113629980E-11
(PID.TID 0000.0001)  cg2d: iter=   104 ; resid.=  3.04858084573060E-11
(PID.TID 0000.0001)  cg2d: iter=   105 ; resid.=  2.49910859207015E-11
(PID.TID 0000.0001)  cg2d: iter=   106 ; resid.=  1.87282209213300E-11
(PID.TID 0000.0001)  cg2d: iter=   107 ; resid.=  1.54157178137794E-11
(PID.TID 0000.0001)  cg2d: iter=   108 ; resid.=  1.19697125572646E-11
(PID.TID 0000.0001)  cg2d: iter=   109 ; resid.=  8.34205173167907E-12
(PID.TID 0000.0001)  cg2d: iter=   110 ; resid.=  5.80351078522417E-12
(PID.TID 0000.0001)  cg2d: iter=   111 ; resid.=  4.54013887278771E-12
(PID.TID 0000.0001)  cg2d: iter=   112 ; resid.=  4.05554742312605E-12
(PID.TID 0000.0001)  cg2d: iter=   113 ; resid.=  3.26473109058981E-12
(PID.TID 0000.0001)  cg2d: iter=   114 ; resid.=  2.57822061255137E-12
(PID.TID 0000.0001)  cg2d: iter=   115 ; resid.=  2.26645583848658E-12
(PID.TID 0000.0001)  cg2d: iter=   116 ; resid.=  1.94223531904783E-12
(PID.TID 0000.0001)  cg2d: iter=   117 ; resid.=  1.59876272515164E-12
(PID.TID 0000.0001)  cg2d: iter=   118 ; resid.=  1.32685269892248E-12
(PID.TID 0000.0001)  cg2d: iter=   119 ; resid.=  1.11062593699081E-12
(PID.TID 0000.0001)  cg2d: iter=   120 ; resid.=  8.91748713168899E-13
(PID.TID 0000.0001)  cg2d: iter=   121 ; resid.=  7.17001047254794E-13
(PID.TID 0000.0001)  cg2d: iter=   122 ; resid.=  5.63056021680700E-13
(PID.TID 0000.0001)  cg2d: iter=   123 ; resid.=  4.43858338461010E-13
(PID.TID 0000.0001)  cg2d: iter=   124 ; resid.=  3.64216734124496E-13
(PID.TID 0000.0001)  cg2d: iter=   125 ; resid.=  3.14383297880717E-13
(PID.TID 0000.0001)  cg2d: iter=   126 ; resid.=  2.64394638992665E-13
(PID.TID 0000.0001)  cg2d: iter=   127 ; resid.=  1.82633813648584E-13
(PID.TID 0000.0001)  cg2d: iter=   128 ; resid.=  1.25923716329973E-13
(PID.TID 0000.0001)  cg2d: iter=   129 ; resid.=  8.66990015330834E-14
DEBUG_STATS_RL:    cg2d_x (SOLVE_FOR_PRESSURE)  min= -1.77875211768870E+01
DEBUG_STATS_RL:    cg2d_x (SOLVE_FOR_PRESSURE)  max=  8.21173369482916E+00
DEBUG_STATS_RL:    cg2d_x (SOLVE_FOR_PRESSURE) mean= -1.83683023723709E+00
DEBUG_STATS_RL:    cg2d_x (SOLVE_FOR_PRESSURE) S.D.=  7.04472409375657E+00
(PID.TID 0000.0001)      cg2d_init_res =   1.66649521343944E-01
(PID.TID 0000.0001)      cg2d_iters(min,last) =      -1     129
(PID.TID 0000.0001)      cg2d_last_res =   8.66990015330834E-14
(PID.TID 0000.0001) // =======================================================
(PID.TID 0000.0001) // Begin MONITOR dynamic field statistics
(PID.TID 0000.0001) // =======================================================
(PID.TID 0000.0001) %MON time_tsnumber                =                    97
(PID.TID 0000.0001) %MON time_secondsf                =   8.3808000000000E+06
(PID.TID 0000.0001) %MON dynstat_eta_max              =   8.3707784860638E-01
(PID.TID 0000.0001) %MON dynstat_eta_min              =  -1.8132029741984E+00
(PID.TID 0000.0001) %MON dynstat_eta_mean             =  -5.8598026890830E-03
(PID.TID 0000.0001) %MON dynstat_eta_sd               =   6.1373047522917E-01
(PID.TID 0000.0001) %MON dynstat_eta_del2             =   2.5462519633144E-03
(PID.TID 0000.0001) %MON dynstat_uvel_max             =   1.2996656763679E-01
(PID.TID 0000.0001) %MON dynstat_uvel_min             =  -1.3389639731365E-01
(PID.TID 0000.0001) %MON dynstat_uvel_mean            =   2.4800815933506E-03
(PID.TID 0000.0001) %MON dynstat_uvel_sd              =   1.4116650293595E-02
(PID.TID 0000.0001) %MON dynstat_uvel_del2            =   9.3427737173334E-05
(PID.TID 0000.0001) %MON dynstat_vvel_max             =   1.2666150393987E-01
(PID.TID 0000.0001) %MON dynstat_vvel_min             =  -9.0289777775210E-02
(PID.TID 0000.0001) %MON dynstat_vvel_mean            =   3.7201531176540E-05
(PID.TID 0000.0001) %MON dynstat_vvel_sd              =   7.7862121373520E-03
(PID.TID 0000.0001) %MON dynstat_vvel_del2            =   7.4738952805006E-05
(PID.TID 0000.0001) %MON dynstat_wvel_max             =   1.2053964843770E-04
(PID.TID 0000.0001) %MON dynstat_wvel_min             =  -6.3606404327172E-05
(PID.TID 0000.0001) %MON dynstat_wvel_mean            =   3.6676139690355E-23
(PID.TID 0000.0001) %MON dynstat_wvel_sd              =   9.1437532511180E-06
(PID.TID 0000.0001) %MON dynstat_wvel_del2            =   8.9601936090069E-08
(PID.TID 0000.0001) %MON dynstat_theta_max            =   3.1300726433130E+01
(PID.TID 0000.0001) %MON dynstat_theta_min            =  -1.9254309083302E+00
(PID.TID 0000.0001) %MON dynstat_theta_mean           =   3.6343010503897E+00
(PID.TID 0000.0001) %MON dynstat_theta_sd             =   4.4290809927292E+00
(PID.TID 0000.0001) %MON dynstat_theta_del2           =   4.8048062744830E-03
(PID.TID 0000.0001) %MON dynstat_salt_max             =   3.7481113191629E+01
(PID.TID 0000.0001) %MON dynstat_salt_min             =   2.9975944359264E+01
(PID.TID 0000.0001) %MON dynstat_salt_mean            =   3.4727995997010E+01
(PID.TID 0000.0001) %MON dynstat_salt_sd              =   2.9668923081405E-01
(PID.TID 0000.0001) %MON dynstat_salt_del2            =   9.9984207798835E-04
(PID.TID 0000.0001) %MON dynstat_sst_max              =   3.1300726433130E+01
(PID.TID 0000.0001) %MON dynstat_sst_min              =  -1.9254309083302E+00
(PID.TID 0000.0001) %MON dynstat_sst_mean             =   1.9035530601868E+01
(PID.TID 0000.0001) %MON dynstat_sst_sd               =   9.3046886807824E+00
(PID.TID 0000.0001) %MON dynstat_sst_del2             =   2.9429711289729E-02
(PID.TID 0000.0001) %MON dynstat_sss_max              =   3.7481113191629E+01
(PID.TID 0000.0001) %MON dynstat_sss_min              =   2.9975944359264E+01
(PID.TID 0000.0001) %MON dynstat_sss_mean             =   3.4845704585717E+01
(PID.TID 0000.0001) %MON dynstat_sss_sd               =   9.9377113933424E-01
(PID.TID 0000.0001) %MON dynstat_sss_del2             =   8.3681592498318E-03
(PID.TID 0000.0001) %MON forcing_qnet_max             =   1.7569776000977E+02
(PID.TID 0000.0001) %MON forcing_qnet_min             =  -1.5486766815186E+02
(PID.TID 0000.0001) %MON forcing_qnet_mean            =   1.0726990182177E+00
(PID.TID 0000.0001) %MON forcing_qnet_sd              =   4.1320424539580E+01
(PID.TID 0000.0001) %MON forcing_qnet_del2            =   7.8843737531048E-01
(PID.TID 0000.0001) %MON forcing_qsw_max              =   0.0000000000000E+00
(PID.TID 0000.0001) %MON forcing_qsw_min              =   0.0000000000000E+00
(PID.TID 0000.0001) %MON forcing_qsw_mean             =   0.0000000000000E+00
(PID.TID 0000.0001) %MON forcing_qsw_sd               =   0.0000000000000E+00
(PID.TID 0000.0001) %MON forcing_qsw_del2             =   0.0000000000000E+00
(PID.TID 0000.0001) %MON forcing_empmr_max            =   6.7089230526562E-05
(PID.TID 0000.0001) %MON forcing_empmr_min            =  -8.3576185261336E-05
(PID.TID 0000.0001) %MON forcing_empmr_mean           =   7.9358392299823E-08
(PID.TID 0000.0001) %MON forcing_empmr_sd             =   2.5503892670617E-05
(PID.TID 0000.0001) %MON forcing_empmr_del2           =   3.6761681237783E-07
(PID.TID 0000.0001) %MON forcing_fu_max               =   3.4493733644485E-01
(PID.TID 0000.0001) %MON forcing_fu_min               =  -4.0815093219280E-01
(PID.TID 0000.0001) %MON forcing_fu_mean              =   1.7785695264799E-02
(PID.TID 0000.0001) %MON forcing_fu_sd                =   1.0114758509639E-01
(PID.TID 0000.0001) %MON forcing_fu_del2              =   7.9173719462986E-04
(PID.TID 0000.0001) %MON forcing_fv_max               =   1.8128432035446E-01
(PID.TID 0000.0001) %MON forcing_fv_min               =  -1.4479391127825E-01
(PID.TID 0000.0001) %MON forcing_fv_mean              =  -6.7635653202109E-03
(PID.TID 0000.0001) %MON forcing_fv_sd                =   3.8824397894992E-02
(PID.TID 0000.0001) %MON forcing_fv_del2              =   4.2076797046063E-04
(PID.TID 0000.0001) %MON trAdv_CFL_u_max              =   4.5960024196124E-02
(PID.TID 0000.0001) %MON trAdv_CFL_v_max              =   2.4659229952094E-02
(PID.TID 0000.0001) %MON trAdv_CFL_w_max              =   2.6179077468004E-02
(PID.TID 0000.0001) %MON advcfl_uvel_max              =   4.5979373615075E-02
(PID.TID 0000.0001) %MON advcfl_vvel_max              =   2.4608298809221E-02
(PID.TID 0000.0001) %MON advcfl_wvel_max              =   2.7933242893492E-02
(PID.TID 0000.0001) %MON advcfl_W_hf_max              =   2.9987157812131E-02
(PID.TID 0000.0001) %MON pe_b_mean                    =   4.8203232982842E-04
(PID.TID 0000.0001) %MON ke_max                       =   1.0639623046964E-02
(PID.TID 0000.0001) %MON ke_mean                      =   1.2054812557162E-04
(PID.TID 0000.0001) %MON ke_vol                       =   1.3226782436723E+18
(PID.TID 0000.0001) %MON vort_r_min                   =  -3.6836154334168E-07
(PID.TID 0000.0001) %MON vort_r_max                   =   3.8160090520453E-07
(PID.TID 0000.0001) %MON vort_a_mean                  =  -2.5274807138460E-05
(PID.TID 0000.0001) %MON vort_a_sd                    =   7.3604676762999E-05
(PID.TID 0000.0001) %MON vort_p_mean                  =  -3.1845655473150E-05
(PID.TID 0000.0001) %MON vort_p_sd                    =   1.3162493614363E-04
(PID.TID 0000.0001) %MON surfExpan_theta_mean         =   5.0072719951207E-08
(PID.TID 0000.0001) %MON surfExpan_salt_mean          =   2.0266823539733E-08
(PID.TID 0000.0001) // =======================================================
(PID.TID 0000.0001) // End MONITOR dynamic field statistics
(PID.TID 0000.0001) // =======================================================
 EXTERNAL_FIELDS_LOAD,        97 : iP,iLd,i0,i1=    3    4    3    4 ; Wght=  0.2666666667  0.7333333333
 EXTERNAL_FIELDS_LOAD: (fu0,1),fu,fv= -2.7199E-02 -3.7252E-02 -3.4571E-02 -2.5979E-02
 EXTERNAL_FIELDS_LOAD: SST,SSS,Q,E-P= -2.3128E-02  3.4572E+01  1.3379E+02  8.1189E-06
DEBUG_STATS_RL:          Uvel (THERMODYNAMICS)  min= -1.33896397313648E-01
DEBUG_STATS_RL:          Uvel (THERMODYNAMICS)  max=  1.29966567636788E-01
DEBUG_STATS_RL:          Uvel (THERMODYNAMICS) mean=  5.96713412490132E-03
DEBUG_STATS_RL:          Uvel (THERMODYNAMICS) S.D.=  2.22724615795154E-02
DEBUG_STATS_RL:          Vvel (THERMODYNAMICS)  min= -9.02897777752096E-02
DEBUG_STATS_RL:          Vvel (THERMODYNAMICS)  max=  1.26661503939867E-01
DEBUG_STATS_RL:          Vvel (THERMODYNAMICS) mean=  8.43110389827640E-04
DEBUG_STATS_RL:          Vvel (THERMODYNAMICS) S.D.=  1.26398168101405E-02
DEBUG_STATS_RL:          Wvel (THERMODYNAMICS)  min= -6.36064043271717E-05
DEBUG_STATS_RL:          Wvel (THERMODYNAMICS)  max=  1.20539648437700E-04
DEBUG_STATS_RL:          Wvel (THERMODYNAMICS) mean= -3.43874248281955E-08
DEBUG_STATS_RL:          Wvel (THERMODYNAMICS) S.D.=  8.01203571712510E-06
DEBUG_STATS_RL:         Theta (THERMODYNAMICS)  min= -1.92452280268352E+00
DEBUG_STATS_RL:         Theta (THERMODYNAMICS)  max=  3.13107453993117E+01
DEBUG_STATS_RL:         Theta (THERMODYNAMICS) mean=  3.22915793429612E+00
DEBUG_STATS_RL:         Theta (THERMODYNAMICS) S.D.=  5.88887601263945E+00
DEBUG_STATS_RL:          Salt (THERMODYNAMICS)  min=  9.99999999999996E-03
DEBUG_STATS_RL:          Salt (THERMODYNAMICS)  max=  3.74820365201961E+01
DEBUG_STATS_RL:          Salt (THERMODYNAMICS) mean=  1.88546919768504E+01
DEBUG_STATS_RL:          Salt (THERMODYNAMICS) S.D.=  1.73002612616830E+01
DEBUG_STATS_RL:         GtNm1 (THERMODYNAMICS)  min= -2.65160966937334E-06
DEBUG_STATS_RL:         GtNm1 (THERMODYNAMICS)  max=  1.99074923659121E-06
DEBUG_STATS_RL:         GtNm1 (THERMODYNAMICS) mean= -2.80860155042579E-09
DEBUG_STATS_RL:         GtNm1 (THERMODYNAMICS) S.D.=  1.25755931536404E-07
DEBUG_STATS_RL:         GsNm1 (THERMODYNAMICS)  min= -3.12189828724077E-07
DEBUG_STATS_RL:         GsNm1 (THERMODYNAMICS)  max=  2.03628145507375E-07
DEBUG_STATS_RL:         GsNm1 (THERMODYNAMICS) mean= -2.13973484088484E-10
DEBUG_STATS_RL:         GsNm1 (THERMODYNAMICS) S.D.=  1.20090972218367E-08
DEBUG_STATS_RL:                EtaN (DYNAMICS)  min= -1.81320297419841E+00
DEBUG_STATS_RL:                EtaN (DYNAMICS)  max=  8.37077848606376E-01
DEBUG_STATS_RL:                EtaN (DYNAMICS) mean= -1.87240595029266E-01
DEBUG_STATS_RL:                EtaN (DYNAMICS) S.D.=  7.18116625255516E-01
DEBUG_STATS_RL:                Uvel (DYNAMICS)  min= -1.33896397313648E-01
DEBUG_STATS_RL:                Uvel (DYNAMICS)  max=  1.29966567636788E-01
DEBUG_STATS_RL:                Uvel (DYNAMICS) mean=  5.96713412490132E-03
DEBUG_STATS_RL:                Uvel (DYNAMICS) S.D.=  2.22724615795154E-02
DEBUG_STATS_RL:                Vvel (DYNAMICS)  min= -9.02897777752096E-02
DEBUG_STATS_RL:                Vvel (DYNAMICS)  max=  1.26661503939867E-01
DEBUG_STATS_RL:                Vvel (DYNAMICS) mean=  8.43110389827640E-04
DEBUG_STATS_RL:                Vvel (DYNAMICS) S.D.=  1.26398168101405E-02
DEBUG_STATS_RL:                Wvel (DYNAMICS)  min= -6.36064043271717E-05
DEBUG_STATS_RL:                Wvel (DYNAMICS)  max=  1.20539648437700E-04
DEBUG_STATS_RL:                Wvel (DYNAMICS) mean= -3.43874248281955E-08
DEBUG_STATS_RL:                Wvel (DYNAMICS) S.D.=  8.01203571712510E-06
DEBUG_STATS_RL:               Theta (DYNAMICS)  min= -1.92452280268352E+00
DEBUG_STATS_RL:               Theta (DYNAMICS)  max=  3.13107453993117E+01
DEBUG_STATS_RL:               Theta (DYNAMICS) mean=  3.22915793429612E+00
DEBUG_STATS_RL:               Theta (DYNAMICS) S.D.=  5.88887601263945E+00
DEBUG_STATS_RL:                Salt (DYNAMICS)  min=  9.99999999999996E-03
DEBUG_STATS_RL:                Salt (DYNAMICS)  max=  3.74820365201961E+01
DEBUG_STATS_RL:                Salt (DYNAMICS) mean=  1.88546919768504E+01
DEBUG_STATS_RL:                Salt (DYNAMICS) S.D.=  1.73002612616830E+01
DEBUG_STATS_RL:                  Gu (DYNAMICS)  min= -1.32904872180721E-01
DEBUG_STATS_RL:                  Gu (DYNAMICS)  max=  1.35912383710341E-01
DEBUG_STATS_RL:                  Gu (DYNAMICS) mean=  5.93511298025852E-03
DEBUG_STATS_RL:                  Gu (DYNAMICS) S.D.=  2.27035251173406E-02
DEBUG_STATS_RL:                  Gv (DYNAMICS)  min= -8.96707014791957E-02
DEBUG_STATS_RL:                  Gv (DYNAMICS)  max=  1.25974293366047E-01
DEBUG_STATS_RL:                  Gv (DYNAMICS) mean=  3.50444206932348E-03
DEBUG_STATS_RL:                  Gv (DYNAMICS) S.D.=  1.42383965765349E-02
DEBUG_STATS_RL:               GuNm1 (DYNAMICS)  min= -9.34985211413195E-06
DEBUG_STATS_RL:               GuNm1 (DYNAMICS)  max=  1.03368031652922E-05
DEBUG_STATS_RL:               GuNm1 (DYNAMICS) mean=  1.72984619947325E-08
DEBUG_STATS_RL:               GuNm1 (DYNAMICS) S.D.=  1.23058919967368E-06
DEBUG_STATS_RL:               GvNm1 (DYNAMICS)  min= -9.33927630654640E-06
DEBUG_STATS_RL:               GvNm1 (DYNAMICS)  max=  1.49580104201615E-05
DEBUG_STATS_RL:               GvNm1 (DYNAMICS) mean=  7.42593908889355E-07
DEBUG_STATS_RL:               GvNm1 (DYNAMICS) S.D.=  2.60226495459405E-06
DEBUG_STATS_RL:               GtNm1 (DYNAMICS)  min= -2.65160966937334E-06
DEBUG_STATS_RL:               GtNm1 (DYNAMICS)  max=  1.99074923659121E-06
DEBUG_STATS_RL:               GtNm1 (DYNAMICS) mean= -2.80860155042579E-09
DEBUG_STATS_RL:               GtNm1 (DYNAMICS) S.D.=  1.25755931536404E-07
DEBUG_STATS_RL:               GsNm1 (DYNAMICS)  min= -3.12189828724077E-07
DEBUG_STATS_RL:               GsNm1 (DYNAMICS)  max=  2.03628145507375E-07
DEBUG_STATS_RL:               GsNm1 (DYNAMICS) mean= -2.13973484088484E-10
DEBUG_STATS_RL:               GsNm1 (DYNAMICS) S.D.=  1.20090972218367E-08
DEBUG_STATS_RL:    cg2d_b (SOLVE_FOR_PRESSURE)  min= -2.80825533161145E+04
DEBUG_STATS_RL:    cg2d_b (SOLVE_FOR_PRESSURE)  max=  3.15092918184268E+04
DEBUG_STATS_RL:    cg2d_b (SOLVE_FOR_PRESSURE) mean=  5.62074809716550E+00
DEBUG_STATS_RL:    cg2d_b (SOLVE_FOR_PRESSURE) S.D.=  4.02601439913262E+03
 cg2d: Sum(rhs),rhsMax =   4.12958562189262E-01  2.06961465042234E+00
(PID.TID 0000.0001)  cg2d: iter=     1 ; resid.=  5.11284199903230E-02
(PID.TID 0000.0001)  cg2d: iter=     2 ; resid.=  3.10092143500520E-02
(PID.TID 0000.0001)  cg2d: iter=     3 ; resid.=  2.45235264206853E-02
(PID.TID 0000.0001)  cg2d: iter=     4 ; resid.=  2.11207170237718E-02
(PID.TID 0000.0001)  cg2d: iter=     5 ; resid.=  1.50133432468291E-02
(PID.TID 0000.0001)  cg2d: iter=     6 ; resid.=  1.17579636786773E-02
(PID.TID 0000.0001)  cg2d: iter=     7 ; resid.=  9.06677808755853E-03
(PID.TID 0000.0001)  cg2d: iter=     8 ; resid.=  7.86806775853934E-03
(PID.TID 0000.0001)  cg2d: iter=     9 ; resid.=  6.72653731694459E-03
(PID.TID 0000.0001)  cg2d: iter=    10 ; resid.=  5.56611039149183E-03
(PID.TID 0000.0001)  cg2d: iter=    11 ; resid.=  4.96261971509514E-03
(PID.TID 0000.0001)  cg2d: iter=    12 ; resid.=  4.51229077098731E-03
(PID.TID 0000.0001)  cg2d: iter=    13 ; resid.=  4.03522735566732E-03
(PID.TID 0000.0001)  cg2d: iter=    14 ; resid.=  3.61376927723616E-03
(PID.TID 0000.0001)  cg2d: iter=    15 ; resid.=  3.24063998168357E-03
(PID.TID 0000.0001)  cg2d: iter=    16 ; resid.=  2.63258854150968E-03
(PID.TID 0000.0001)  cg2d: iter=    17 ; resid.=  2.28787579553679E-03
(PID.TID 0000.0001)  cg2d: iter=    18 ; resid.=  1.89143243434350E-03
(PID.TID 0000.0001)  cg2d: iter=    19 ; resid.=  1.64199610779619E-03
(PID.TID 0000.0001)  cg2d: iter=    20 ; resid.=  1.30038549240481E-03
(PID.TID 0000.0001)  cg2d: iter=    21 ; resid.=  1.07841172249173E-03
(PID.TID 0000.0001)  cg2d: iter=    22 ; resid.=  9.29204431608032E-04
(PID.TID 0000.0001)  cg2d: iter=    23 ; resid.=  7.56125728901137E-04
(PID.TID 0000.0001)  cg2d: iter=    24 ; resid.=  6.56278551607677E-04
(PID.TID 0000.0001)  cg2d: iter=    25 ; resid.=  5.00582923533904E-04
(PID.TID 0000.0001)  cg2d: iter=    26 ; resid.=  3.94184429609946E-04
(PID.TID 0000.0001)  cg2d: iter=    27 ; resid.=  3.38941684634984E-04
(PID.TID 0000.0001)  cg2d: iter=    28 ; resid.=  2.99483212971216E-04
(PID.TID 0000.0001)  cg2d: iter=    29 ; resid.=  2.47522909847183E-04
(PID.TID 0000.0001)  cg2d: iter=    30 ; resid.=  1.94165947853941E-04
(PID.TID 0000.0001)  cg2d: iter=    31 ; resid.=  1.70204568413050E-04
(PID.TID 0000.0001)  cg2d: iter=    32 ; resid.=  1.45388697721094E-04
(PID.TID 0000.0001)  cg2d: iter=    33 ; resid.=  1.11059420352252E-04
(PID.TID 0000.0001)  cg2d: iter=    34 ; resid.=  8.91887293648240E-05
(PID.TID 0000.0001)  cg2d: iter=    35 ; resid.=  7.15083153238962E-05
(PID.TID 0000.0001)  cg2d: iter=    36 ; resid.=  5.99541149040479E-05
(PID.TID 0000.0001)  cg2d: iter=    37 ; resid.=  5.25460580778103E-05
(PID.TID 0000.0001)  cg2d: iter=    38 ; resid.=  4.21366206814032E-05
(PID.TID 0000.0001)  cg2d: iter=    39 ; resid.=  3.14363236227458E-05
(PID.TID 0000.0001)  cg2d: iter=    40 ; resid.=  2.32890289983043E-05
(PID.TID 0000.0001)  cg2d: iter=    41 ; resid.=  1.68870680966942E-05
(PID.TID 0000.0001)  cg2d: iter=    42 ; resid.=  1.38626693851251E-05
(PID.TID 0000.0001)  cg2d: iter=    43 ; resid.=  1.20637485660411E-05
(PID.TID 0000.0001)  cg2d: iter=    44 ; resid.=  1.00279668836025E-05
(PID.TID 0000.0001)  cg2d: iter=    45 ; resid.=  7.74698453785561E-06
(PID.TID 0000.0001)  cg2d: iter=    46 ; resid.=  5.99547085277521E-06
(PID.TID 0000.0001)  cg2d: iter=    47 ; resid.=  5.01152732888550E-06
(PID.TID 0000.0001)  cg2d: iter=    48 ; resid.=  4.52074384600088E-06
(PID.TID 0000.0001)  cg2d: iter=    49 ; resid.=  4.03389354949586E-06
(PID.TID 0000.0001)  cg2d: iter=    50 ; resid.=  3.23509626696004E-06
(PID.TID 0000.0001)  cg2d: iter=    51 ; resid.=  2.46141706233781E-06
(PID.TID 0000.0001)  cg2d: iter=    52 ; resid.=  1.98199673630871E-06
(PID.TID 0000.0001)  cg2d: iter=    53 ; resid.=  1.59824167919039E-06
(PID.TID 0000.0001)  cg2d: iter=    54 ; resid.=  1.34800086376300E-06
(PID.TID 0000.0001)  cg2d: iter=    55 ; resid.=  1.15595877600005E-06
(PID.TID 0000.0001)  cg2d: iter=    56 ; resid.=  1.03659940804976E-06
(PID.TID 0000.0001)  cg2d: iter=    57 ; resid.=  9.81066770652780E-07
(PID.TID 0000.0001)  cg2d: iter=    58 ; resid.=  8.59496746240177E-07
(PID.TID 0000.0001)  cg2d: iter=    59 ; resid.=  6.99073115816969E-07
(PID.TID 0000.0001)  cg2d: iter=    60 ; resid.=  5.61790993702077E-07
(PID.TID 0000.0001)  cg2d: iter=    61 ; resid.=  4.39998783630675E-07
(PID.TID 0000.0001)  cg2d: iter=    62 ; resid.=  3.12103473172798E-07
(PID.TID 0000.0001)  cg2d: iter=    63 ; resid.=  2.28705555638945E-07
(PID.TID 0000.0001)  cg2d: iter=    64 ; resid.=  1.85321767438735E-07
(PID.TID 0000.0001)  cg2d: iter=    65 ; resid.=  1.55331955512779E-07
(PID.TID 0000.0001)  cg2d: iter=    66 ; resid.=  1.29249077886306E-07
(PID.TID 0000.0001)  cg2d: iter=    67 ; resid.=  1.12392335752069E-07
(PID.TID 0000.0001)  cg2d: iter=    68 ; resid.=  9.43126266076553E-08
(PID.TID 0000.0001)  cg2d: iter=    69 ; resid.=  7.69555064195194E-08
(PID.TID 0000.0001)  cg2d: iter=    70 ; resid.=  6.05829810016686E-08
(PID.TID 0000.0001)  cg2d: iter=    71 ; resid.=  5.09884583894111E-08
(PID.TID 0000.0001)  cg2d: iter=    72 ; resid.=  4.05560969572759E-08
(PID.TID 0000.0001)  cg2d: iter=    73 ; resid.=  3.59780604571692E-08
(PID.TID 0000.0001)  cg2d: iter=    74 ; resid.=  2.94278687876188E-08
(PID.TID 0000.0001)  cg2d: iter=    75 ; resid.=  2.28496075103970E-08
(PID.TID 0000.0001)  cg2d: iter=    76 ; resid.=  1.71854518595282E-08
(PID.TID 0000.0001)  cg2d: iter=    77 ; resid.=  1.37301774513767E-08
(PID.TID 0000.0001)  cg2d: iter=    78 ; resid.=  1.11402287958409E-08
(PID.TID 0000.0001)  cg2d: iter=    79 ; resid.=  9.03218972298184E-09
(PID.TID 0000.0001)  cg2d: iter=    80 ; resid.=  7.20716779449777E-09
(PID.TID 0000.0001)  cg2d: iter=    81 ; resid.=  6.24373180285764E-09
(PID.TID 0000.0001)  cg2d: iter=    82 ; resid.=  5.60130441394342E-09
(PID.TID 0000.0001)  cg2d: iter=    83 ; resid.=  4.83253423932906E-09
(PID.TID 0000.0001)  cg2d: iter=    84 ; resid.=  4.15260046130603E-09
(PID.TID 0000.0001)  cg2d: iter=    85 ; resid.=  3.35352369745359E-09
(PID.TID 0000.0001)  cg2d: iter=    86 ; resid.=  2.69350628176053E-09
(PID.TID 0000.0001)  cg2d: iter=    87 ; resid.=  2.24526917000644E-09
(PID.TID 0000.0001)  cg2d: iter=    88 ; resid.=  1.83828323279222E-09
(PID.TID 0000.0001)  cg2d: iter=    89 ; resid.=  1.53724592097337E-09
(PID.TID 0000.0001)  cg2d: iter=    90 ; resid.=  1.28620395212860E-09
(PID.TID 0000.0001)  cg2d: iter=    91 ; resid.=  1.06150661518546E-09
(PID.TID 0000.0001)  cg2d: iter=    92 ; resid.=  8.34326979219856E-10
(PID.TID 0000.0001)  cg2d: iter=    93 ; resid.=  6.74121936934995E-10
(PID.TID 0000.0001)  cg2d: iter=    94 ; resid.=  5.35713867742331E-10
(PID.TID 0000.0001)  cg2d: iter=    95 ; resid.=  4.37103542985036E-10
(PID.TID 0000.0001)  cg2d: iter=    96 ; resid.=  3.37880860367274E-10
(PID.TID 0000.0001)  cg2d: iter=    97 ; resid.=  2.55200445857186E-10
(PID.TID 0000.0001)  cg2d: iter=    98 ; resid.=  2.05813165691671E-10
(PID.TID 0000.0001)  cg2d: iter=    99 ; resid.=  1.58114776374730E-10
(PID.TID 0000.0001)  cg2d: iter=   100 ; resid.=  1.31138901406133E-10
(PID.TID 0000.0001)  cg2d: iter=   101 ; resid.=  1.02811709082433E-10
(PID.TID 0000.0001)  cg2d: iter=   102 ; resid.=  7.85777237463520E-11
(PID.TID 0000.0001)  cg2d: iter=   103 ; resid.=  6.62027336389391E-11
(PID.TID 0000.0001)  cg2d: iter=   104 ; resid.=  5.74229115160994E-11
(PID.TID 0000.0001)  cg2d: iter=   105 ; resid.=  5.12970099536337E-11
(PID.TID 0000.0001)  cg2d: iter=   106 ; resid.=  4.16604264595229E-11
(PID.TID 0000.0001)  cg2d: iter=   107 ; resid.=  3.63684003803193E-11
(PID.TID 0000.0001)  cg2d: iter=   108 ; resid.=  2.91348683797076E-11
(PID.TID 0000.0001)  cg2d: iter=   109 ; resid.=  2.13589278232072E-11
(PID.TID 0000.0001)  cg2d: iter=   110 ; resid.=  1.63173774768879E-11
(PID.TID 0000.0001)  cg2d: iter=   111 ; resid.=  1.37295563824167E-11
(PID.TID 0000.0001)  cg2d: iter=   112 ; resid.=  1.23814518957106E-11
(PID.TID 0000.0001)  cg2d: iter=   113 ; resid.=  9.16980074242565E-12
(PID.TID 0000.0001)  cg2d: iter=   114 ; resid.=  6.75214313415991E-12
(PID.TID 0000.0001)  cg2d: iter=   115 ; resid.=  5.27949210695325E-12
(PID.TID 0000.0001)  cg2d: iter=   116 ; resid.=  3.97737427570991E-12
(PID.TID 0000.0001)  cg2d: iter=   117 ; resid.=  2.93803482035831E-12
(PID.TID 0000.0001)  cg2d: iter=   118 ; resid.=  2.23895274087620E-12
(PID.TID 0000.0001)  cg2d: iter=   119 ; resid.=  1.73198444009484E-12
(PID.TID 0000.0001)  cg2d: iter=   120 ; resid.=  1.29554454934763E-12
(PID.TID 0000.0001)  cg2d: iter=   121 ; resid.=  9.69106154194767E-13
(PID.TID 0000.0001)  cg2d: iter=   122 ; resid.=  7.43900630069944E-13
(PID.TID 0000.0001)  cg2d: iter=   123 ; resid.=  5.82040574661464E-13
(PID.TID 0000.0001)  cg2d: iter=   124 ; resid.=  4.74519328701103E-13
(PID.TID 0000.0001)  cg2d: iter=   125 ; resid.=  3.89219573687337E-13
(PID.TID 0000.0001)  cg2d: iter=   126 ; resid.=  3.03116456820312E-13
(PID.TID 0000.0001)  cg2d: iter=   127 ; resid.=  1.96934571333308E-13
(PID.TID 0000.0001)  cg2d: iter=   128 ; resid.=  1.27819165262311E-13
(PID.TID 0000.0001)  cg2d: iter=   129 ; resid.=  8.40354162711194E-14
DEBUG_STATS_RL:    cg2d_x (SOLVE_FOR_PRESSURE)  min= -1.77202186993572E+01
DEBUG_STATS_RL:    cg2d_x (SOLVE_FOR_PRESSURE)  max=  8.20067081643834E+00
DEBUG_STATS_RL:    cg2d_x (SOLVE_FOR_PRESSURE) mean= -1.83651791697214E+00
DEBUG_STATS_RL:    cg2d_x (SOLVE_FOR_PRESSURE) S.D.=  7.05558453660138E+00
(PID.TID 0000.0001)      cg2d_init_res =   1.63729287782492E-01
(PID.TID 0000.0001)      cg2d_iters(min,last) =      -1     129
(PID.TID 0000.0001)      cg2d_last_res =   8.40354162711194E-14
(PID.TID 0000.0001) // =======================================================
(PID.TID 0000.0001) // Begin MONITOR dynamic field statistics
(PID.TID 0000.0001) // =======================================================
(PID.TID 0000.0001) %MON time_tsnumber                =                    98
(PID.TID 0000.0001) %MON time_secondsf                =   8.4672000000000E+06
(PID.TID 0000.0001) %MON dynstat_eta_max              =   8.3595013419343E-01
(PID.TID 0000.0001) %MON dynstat_eta_min              =  -1.8063423750618E+00
(PID.TID 0000.0001) %MON dynstat_eta_mean             =  -5.8645536896366E-03
(PID.TID 0000.0001) %MON dynstat_eta_sd               =   6.1470187715867E-01
(PID.TID 0000.0001) %MON dynstat_eta_del2             =   2.5457449599700E-03
(PID.TID 0000.0001) %MON dynstat_uvel_max             =   1.3262500045454E-01
(PID.TID 0000.0001) %MON dynstat_uvel_min             =  -1.3305707733667E-01
(PID.TID 0000.0001) %MON dynstat_uvel_mean            =   2.5059290756464E-03
(PID.TID 0000.0001) %MON dynstat_uvel_sd              =   1.4119955365185E-02
(PID.TID 0000.0001) %MON dynstat_uvel_del2            =   9.3478715049848E-05
(PID.TID 0000.0001) %MON dynstat_vvel_max             =   1.2693305603652E-01
(PID.TID 0000.0001) %MON dynstat_vvel_min             =  -9.0645141020312E-02
(PID.TID 0000.0001) %MON dynstat_vvel_mean            =   3.2423352387159E-05
(PID.TID 0000.0001) %MON dynstat_vvel_sd              =   7.7459411086301E-03
(PID.TID 0000.0001) %MON dynstat_vvel_del2            =   7.4387440145935E-05
(PID.TID 0000.0001) %MON dynstat_wvel_max             =   1.2074291136101E-04
(PID.TID 0000.0001) %MON dynstat_wvel_min             =  -6.3767549943867E-05
(PID.TID 0000.0001) %MON dynstat_wvel_mean            =  -1.6231313478349E-22
(PID.TID 0000.0001) %MON dynstat_wvel_sd              =   9.1090555326652E-06
(PID.TID 0000.0001) %MON dynstat_wvel_del2            =   8.9023085457673E-08
(PID.TID 0000.0001) %MON dynstat_theta_max            =   3.1310745399312E+01
(PID.TID 0000.0001) %MON dynstat_theta_min            =  -1.9245228026835E+00
(PID.TID 0000.0001) %MON dynstat_theta_mean           =   3.6342904039568E+00
(PID.TID 0000.0001) %MON dynstat_theta_sd             =   4.4290762392622E+00
(PID.TID 0000.0001) %MON dynstat_theta_del2           =   4.8024713186926E-03
(PID.TID 0000.0001) %MON dynstat_salt_max             =   3.7482036520196E+01
(PID.TID 0000.0001) %MON dynstat_salt_min             =   2.9979259078261E+01
(PID.TID 0000.0001) %MON dynstat_salt_mean            =   3.4727995983818E+01
(PID.TID 0000.0001) %MON dynstat_salt_sd              =   2.9669704950271E-01
(PID.TID 0000.0001) %MON dynstat_salt_del2            =   9.9996805636625E-04
(PID.TID 0000.0001) %MON dynstat_sst_max              =   3.1310745399312E+01
(PID.TID 0000.0001) %MON dynstat_sst_min              =  -1.9245228026835E+00
(PID.TID 0000.0001) %MON dynstat_sst_mean             =   1.9031407309309E+01
(PID.TID 0000.0001) %MON dynstat_sst_sd               =   9.3118693779331E+00
(PID.TID 0000.0001) %MON dynstat_sst_del2             =   2.9441910202533E-02
(PID.TID 0000.0001) %MON dynstat_sss_max              =   3.7482036520196E+01
(PID.TID 0000.0001) %MON dynstat_sss_min              =   2.9979259078261E+01
(PID.TID 0000.0001) %MON dynstat_sss_mean             =   3.4845470320439E+01
(PID.TID 0000.0001) %MON dynstat_sss_sd               =   9.9418442092709E-01
(PID.TID 0000.0001) %MON dynstat_sss_del2             =   8.3743946562870E-03
(PID.TID 0000.0001) %MON forcing_qnet_max             =   1.7099252522786E+02
(PID.TID 0000.0001) %MON forcing_qnet_min             =  -1.5443967183431E+02
(PID.TID 0000.0001) %MON forcing_qnet_mean            =   1.4697354471873E+00
(PID.TID 0000.0001) %MON forcing_qnet_sd              =   4.1898539270687E+01
(PID.TID 0000.0001) %MON forcing_qnet_del2            =   7.9096758072099E-01
(PID.TID 0000.0001) %MON forcing_qsw_max              =   0.0000000000000E+00
(PID.TID 0000.0001) %MON forcing_qsw_min              =   0.0000000000000E+00
(PID.TID 0000.0001) %MON forcing_qsw_mean             =   0.0000000000000E+00
(PID.TID 0000.0001) %MON forcing_qsw_sd               =   0.0000000000000E+00
(PID.TID 0000.0001) %MON forcing_qsw_del2             =   0.0000000000000E+00
(PID.TID 0000.0001) %MON forcing_empmr_max            =   6.6993059514668E-05
(PID.TID 0000.0001) %MON forcing_empmr_min            =  -8.3591031341257E-05
(PID.TID 0000.0001) %MON forcing_empmr_mean           =   5.6913027472259E-08
(PID.TID 0000.0001) %MON forcing_empmr_sd             =   2.5506549223614E-05
(PID.TID 0000.0001) %MON forcing_empmr_del2           =   3.6847966604449E-07
(PID.TID 0000.0001) %MON forcing_fu_max               =   3.4444528222084E-01
(PID.TID 0000.0001) %MON forcing_fu_min               =  -4.0908400416374E-01
(PID.TID 0000.0001) %MON forcing_fu_mean              =   1.7658503167866E-02
(PID.TID 0000.0001) %MON forcing_fu_sd                =   1.0136293778860E-01
(PID.TID 0000.0001) %MON forcing_fu_del2              =   7.9668426587324E-04
(PID.TID 0000.0001) %MON forcing_fv_max               =   1.8118831912676E-01
(PID.TID 0000.0001) %MON forcing_fv_min               =  -1.4509931405385E-01
(PID.TID 0000.0001) %MON forcing_fv_mean              =  -6.7270886478379E-03
(PID.TID 0000.0001) %MON forcing_fv_sd                =   3.8931335911595E-02
(PID.TID 0000.0001) %MON forcing_fv_del2              =   4.2395820174704E-04
(PID.TID 0000.0001) %MON trAdv_CFL_u_max              =   4.5988712354706E-02
(PID.TID 0000.0001) %MON trAdv_CFL_v_max              =   2.4568306524969E-02
(PID.TID 0000.0001) %MON trAdv_CFL_w_max              =   2.6142650400319E-02
(PID.TID 0000.0001) %MON advcfl_uvel_max              =   4.5830709630584E-02
(PID.TID 0000.0001) %MON advcfl_vvel_max              =   2.4661057026429E-02
(PID.TID 0000.0001) %MON advcfl_wvel_max              =   2.8105498458031E-02
(PID.TID 0000.0001) %MON advcfl_W_hf_max              =   3.0172079227004E-02
(PID.TID 0000.0001) %MON pe_b_mean                    =   4.8355937428105E-04
(PID.TID 0000.0001) %MON ke_max                       =   1.0584479816668E-02
(PID.TID 0000.0001) %MON ke_mean                      =   1.2036811247692E-04
(PID.TID 0000.0001) %MON ke_vol                       =   1.3226782436723E+18
(PID.TID 0000.0001) %MON vort_r_min                   =  -3.7186473650408E-07
(PID.TID 0000.0001) %MON vort_r_max                   =   3.7186357254804E-07
(PID.TID 0000.0001) %MON vort_a_mean                  =  -2.5274807131487E-05
(PID.TID 0000.0001) %MON vort_a_sd                    =   7.3604681848709E-05
(PID.TID 0000.0001) %MON vort_p_mean                  =  -3.1845655464364E-05
(PID.TID 0000.0001) %MON vort_p_sd                    =   1.3162497348113E-04
(PID.TID 0000.0001) %MON surfExpan_theta_mean         =   8.7823959715936E-08
(PID.TID 0000.0001) %MON surfExpan_salt_mean          =   1.1243706284994E-08
(PID.TID 0000.0001) // =======================================================
(PID.TID 0000.0001) // End MONITOR dynamic field statistics
(PID.TID 0000.0001) // =======================================================
 EXTERNAL_FIELDS_LOAD,        98 : iP,iLd,i0,i1=    3    4    3    4 ; Wght=  0.2333333333  0.7666666667
 EXTERNAL_FIELDS_LOAD: (fu0,1),fu,fv= -2.7199E-02 -3.7252E-02 -3.4906E-02 -2.7134E-02
 EXTERNAL_FIELDS_LOAD: SST,SSS,Q,E-P= -1.5820E-02  3.4571E+01  1.3008E+02  8.0751E-06
DEBUG_STATS_RL:          Uvel (THERMODYNAMICS)  min= -1.33057077336672E-01
DEBUG_STATS_RL:          Uvel (THERMODYNAMICS)  max=  1.32625000454539E-01
DEBUG_STATS_RL:          Uvel (THERMODYNAMICS) mean=  5.99554204710002E-03
DEBUG_STATS_RL:          Uvel (THERMODYNAMICS) S.D.=  2.23050037010524E-02
DEBUG_STATS_RL:          Vvel (THERMODYNAMICS)  min= -9.06451410203124E-02
DEBUG_STATS_RL:          Vvel (THERMODYNAMICS)  max=  1.26933056036524E-01
DEBUG_STATS_RL:          Vvel (THERMODYNAMICS) mean=  8.37969035527134E-04
DEBUG_STATS_RL:          Vvel (THERMODYNAMICS) S.D.=  1.25834537966914E-02
DEBUG_STATS_RL:          Wvel (THERMODYNAMICS)  min= -6.37675499438667E-05
DEBUG_STATS_RL:          Wvel (THERMODYNAMICS)  max=  1.20742911361006E-04
DEBUG_STATS_RL:          Wvel (THERMODYNAMICS) mean= -3.28569452501208E-08
DEBUG_STATS_RL:          Wvel (THERMODYNAMICS) S.D.=  7.97057492734392E-06
DEBUG_STATS_RL:         Theta (THERMODYNAMICS)  min= -1.92361446093794E+00
DEBUG_STATS_RL:         Theta (THERMODYNAMICS)  max=  3.13202271352014E+01
DEBUG_STATS_RL:         Theta (THERMODYNAMICS) mean=  3.22895473627404E+00
DEBUG_STATS_RL:         Theta (THERMODYNAMICS) S.D.=  5.88877333963929E+00
DEBUG_STATS_RL:          Salt (THERMODYNAMICS)  min=  9.99999999999996E-03
DEBUG_STATS_RL:          Salt (THERMODYNAMICS)  max=  3.74830015560522E+01
DEBUG_STATS_RL:          Salt (THERMODYNAMICS) mean=  1.88546860865183E+01
DEBUG_STATS_RL:          Salt (THERMODYNAMICS) S.D.=  1.73002566710229E+01
DEBUG_STATS_RL:         GtNm1 (THERMODYNAMICS)  min= -2.57440999023281E-06
DEBUG_STATS_RL:         GtNm1 (THERMODYNAMICS)  max=  1.83736208262163E-06
DEBUG_STATS_RL:         GtNm1 (THERMODYNAMICS) mean= -2.98489319371744E-09
DEBUG_STATS_RL:         GtNm1 (THERMODYNAMICS) S.D.=  1.24471482090929E-07
DEBUG_STATS_RL:         GsNm1 (THERMODYNAMICS)  min= -2.95758134728418E-07
DEBUG_STATS_RL:         GsNm1 (THERMODYNAMICS)  max=  1.91342858986185E-07
DEBUG_STATS_RL:         GsNm1 (THERMODYNAMICS) mean= -2.02396803490094E-10
DEBUG_STATS_RL:         GsNm1 (THERMODYNAMICS) S.D.=  1.17134301068526E-08
DEBUG_STATS_RL:                EtaN (DYNAMICS)  min= -1.80634237506182E+00
DEBUG_STATS_RL:                EtaN (DYNAMICS)  max=  8.35950134193434E-01
DEBUG_STATS_RL:                EtaN (DYNAMICS) mean= -1.87208758101137E-01
DEBUG_STATS_RL:                EtaN (DYNAMICS) S.D.=  7.19223704036841E-01
DEBUG_STATS_RL:                Uvel (DYNAMICS)  min= -1.33057077336672E-01
DEBUG_STATS_RL:                Uvel (DYNAMICS)  max=  1.32625000454539E-01
DEBUG_STATS_RL:                Uvel (DYNAMICS) mean=  5.99554204710002E-03
DEBUG_STATS_RL:                Uvel (DYNAMICS) S.D.=  2.23050037010524E-02
DEBUG_STATS_RL:                Vvel (DYNAMICS)  min= -9.06451410203124E-02
DEBUG_STATS_RL:                Vvel (DYNAMICS)  max=  1.26933056036524E-01
DEBUG_STATS_RL:                Vvel (DYNAMICS) mean=  8.37969035527134E-04
DEBUG_STATS_RL:                Vvel (DYNAMICS) S.D.=  1.25834537966914E-02
DEBUG_STATS_RL:                Wvel (DYNAMICS)  min= -6.37675499438667E-05
DEBUG_STATS_RL:                Wvel (DYNAMICS)  max=  1.20742911361006E-04
DEBUG_STATS_RL:                Wvel (DYNAMICS) mean= -3.28569452501208E-08
DEBUG_STATS_RL:                Wvel (DYNAMICS) S.D.=  7.97057492734392E-06
DEBUG_STATS_RL:               Theta (DYNAMICS)  min= -1.92361446093794E+00
DEBUG_STATS_RL:               Theta (DYNAMICS)  max=  3.13202271352014E+01
DEBUG_STATS_RL:               Theta (DYNAMICS) mean=  3.22895473627404E+00
DEBUG_STATS_RL:               Theta (DYNAMICS) S.D.=  5.88877333963929E+00
DEBUG_STATS_RL:                Salt (DYNAMICS)  min=  9.99999999999996E-03
DEBUG_STATS_RL:                Salt (DYNAMICS)  max=  3.74830015560522E+01
DEBUG_STATS_RL:                Salt (DYNAMICS) mean=  1.88546860865183E+01
DEBUG_STATS_RL:                Salt (DYNAMICS) S.D.=  1.73002566710229E+01
DEBUG_STATS_RL:                  Gu (DYNAMICS)  min= -1.32068689372787E-01
DEBUG_STATS_RL:                  Gu (DYNAMICS)  max=  1.37450561270269E-01
DEBUG_STATS_RL:                  Gu (DYNAMICS) mean=  5.96639148012499E-03
DEBUG_STATS_RL:                  Gu (DYNAMICS) S.D.=  2.27365796998856E-02
DEBUG_STATS_RL:                  Gv (DYNAMICS)  min= -9.00021890910547E-02
DEBUG_STATS_RL:                  Gv (DYNAMICS)  max=  1.26227852528328E-01
DEBUG_STATS_RL:                  Gv (DYNAMICS) mean=  3.51354132109546E-03
DEBUG_STATS_RL:                  Gv (DYNAMICS) S.D.=  1.41966328936771E-02
DEBUG_STATS_RL:               GuNm1 (DYNAMICS)  min= -9.30565113353466E-06
DEBUG_STATS_RL:               GuNm1 (DYNAMICS)  max=  1.03568376882841E-05
DEBUG_STATS_RL:               GuNm1 (DYNAMICS) mean=  1.76457495508379E-08
DEBUG_STATS_RL:               GuNm1 (DYNAMICS) S.D.=  1.23147667790911E-06
DEBUG_STATS_RL:               GvNm1 (DYNAMICS)  min= -9.36041345376984E-06
DEBUG_STATS_RL:               GvNm1 (DYNAMICS)  max=  1.49404542954803E-05
DEBUG_STATS_RL:               GvNm1 (DYNAMICS) mean=  7.43045728932536E-07
DEBUG_STATS_RL:               GvNm1 (DYNAMICS) S.D.=  2.60203084503282E-06
DEBUG_STATS_RL:               GtNm1 (DYNAMICS)  min= -2.57440999023281E-06
DEBUG_STATS_RL:               GtNm1 (DYNAMICS)  max=  1.83736208262163E-06
DEBUG_STATS_RL:               GtNm1 (DYNAMICS) mean= -2.98489319371744E-09
DEBUG_STATS_RL:               GtNm1 (DYNAMICS) S.D.=  1.24471482090929E-07
DEBUG_STATS_RL:               GsNm1 (DYNAMICS)  min= -2.95758134728418E-07
DEBUG_STATS_RL:               GsNm1 (DYNAMICS)  max=  1.91342858986185E-07
DEBUG_STATS_RL:               GsNm1 (DYNAMICS) mean= -2.02396803490094E-10
DEBUG_STATS_RL:               GsNm1 (DYNAMICS) S.D.=  1.17134301068526E-08
DEBUG_STATS_RL:    cg2d_b (SOLVE_FOR_PRESSURE)  min= -2.79697594080005E+04
DEBUG_STATS_RL:    cg2d_b (SOLVE_FOR_PRESSURE)  max=  3.16100107983845E+04
DEBUG_STATS_RL:    cg2d_b (SOLVE_FOR_PRESSURE) mean=  5.62350578041853E+00
DEBUG_STATS_RL:    cg2d_b (SOLVE_FOR_PRESSURE) S.D.=  4.02846050030843E+03
 cg2d: Sum(rhs),rhsMax =   4.11844714786830E-01  2.07623014269356E+00
(PID.TID 0000.0001)  cg2d: iter=     1 ; resid.=  5.07074660320590E-02
(PID.TID 0000.0001)  cg2d: iter=     2 ; resid.=  3.10456723425119E-02
(PID.TID 0000.0001)  cg2d: iter=     3 ; resid.=  2.49325307846314E-02
(PID.TID 0000.0001)  cg2d: iter=     4 ; resid.=  2.15933341730507E-02
(PID.TID 0000.0001)  cg2d: iter=     5 ; resid.=  1.57468304499613E-02
(PID.TID 0000.0001)  cg2d: iter=     6 ; resid.=  1.24452782631801E-02
(PID.TID 0000.0001)  cg2d: iter=     7 ; resid.=  9.98292090755386E-03
(PID.TID 0000.0001)  cg2d: iter=     8 ; resid.=  8.95937252307069E-03
(PID.TID 0000.0001)  cg2d: iter=     9 ; resid.=  7.79990851408204E-03
(PID.TID 0000.0001)  cg2d: iter=    10 ; resid.=  6.47228200412162E-03
(PID.TID 0000.0001)  cg2d: iter=    11 ; resid.=  5.72309314305521E-03
(PID.TID 0000.0001)  cg2d: iter=    12 ; resid.=  5.12695166606397E-03
(PID.TID 0000.0001)  cg2d: iter=    13 ; resid.=  4.58486254148063E-03
(PID.TID 0000.0001)  cg2d: iter=    14 ; resid.=  3.97823900119058E-03
(PID.TID 0000.0001)  cg2d: iter=    15 ; resid.=  3.44410356205085E-03
(PID.TID 0000.0001)  cg2d: iter=    16 ; resid.=  2.71290717034000E-03
(PID.TID 0000.0001)  cg2d: iter=    17 ; resid.=  2.29632864350466E-03
(PID.TID 0000.0001)  cg2d: iter=    18 ; resid.=  1.88034255471162E-03
(PID.TID 0000.0001)  cg2d: iter=    19 ; resid.=  1.60285703471800E-03
(PID.TID 0000.0001)  cg2d: iter=    20 ; resid.=  1.27416574034287E-03
(PID.TID 0000.0001)  cg2d: iter=    21 ; resid.=  1.06217836228832E-03
(PID.TID 0000.0001)  cg2d: iter=    22 ; resid.=  9.29497438897708E-04
(PID.TID 0000.0001)  cg2d: iter=    23 ; resid.=  7.82687293773939E-04
(PID.TID 0000.0001)  cg2d: iter=    24 ; resid.=  7.02426957879268E-04
(PID.TID 0000.0001)  cg2d: iter=    25 ; resid.=  5.52962267690231E-04
(PID.TID 0000.0001)  cg2d: iter=    26 ; resid.=  4.54431057763491E-04
(PID.TID 0000.0001)  cg2d: iter=    27 ; resid.=  4.06425782209028E-04
(PID.TID 0000.0001)  cg2d: iter=    28 ; resid.=  3.76377995772820E-04
(PID.TID 0000.0001)  cg2d: iter=    29 ; resid.=  3.17542744468787E-04
(PID.TID 0000.0001)  cg2d: iter=    30 ; resid.=  2.49753596253194E-04
(PID.TID 0000.0001)  cg2d: iter=    31 ; resid.=  2.13454681049016E-04
(PID.TID 0000.0001)  cg2d: iter=    32 ; resid.=  1.76359979244657E-04
(PID.TID 0000.0001)  cg2d: iter=    33 ; resid.=  1.31305385354426E-04
(PID.TID 0000.0001)  cg2d: iter=    34 ; resid.=  1.01845627563472E-04
(PID.TID 0000.0001)  cg2d: iter=    35 ; resid.=  7.97039167475036E-05
(PID.TID 0000.0001)  cg2d: iter=    36 ; resid.=  6.59381479987236E-05
(PID.TID 0000.0001)  cg2d: iter=    37 ; resid.=  5.70005369427014E-05
(PID.TID 0000.0001)  cg2d: iter=    38 ; resid.=  4.60880507722645E-05
(PID.TID 0000.0001)  cg2d: iter=    39 ; resid.=  3.51182054278546E-05
(PID.TID 0000.0001)  cg2d: iter=    40 ; resid.=  2.72058788095668E-05
(PID.TID 0000.0001)  cg2d: iter=    41 ; resid.=  2.09251162701683E-05
(PID.TID 0000.0001)  cg2d: iter=    42 ; resid.=  1.86473109155781E-05
(PID.TID 0000.0001)  cg2d: iter=    43 ; resid.=  1.72437356194059E-05
(PID.TID 0000.0001)  cg2d: iter=    44 ; resid.=  1.54736338693360E-05
(PID.TID 0000.0001)  cg2d: iter=    45 ; resid.=  1.29259869982243E-05
(PID.TID 0000.0001)  cg2d: iter=    46 ; resid.=  1.08476145432897E-05
(PID.TID 0000.0001)  cg2d: iter=    47 ; resid.=  9.55885953941251E-06
(PID.TID 0000.0001)  cg2d: iter=    48 ; resid.=  8.47850933048931E-06
(PID.TID 0000.0001)  cg2d: iter=    49 ; resid.=  7.17702516874577E-06
(PID.TID 0000.0001)  cg2d: iter=    50 ; resid.=  5.55216547434925E-06
(PID.TID 0000.0001)  cg2d: iter=    51 ; resid.=  4.13993469733859E-06
(PID.TID 0000.0001)  cg2d: iter=    52 ; resid.=  3.31410224248488E-06
(PID.TID 0000.0001)  cg2d: iter=    53 ; resid.=  2.62007040770478E-06
(PID.TID 0000.0001)  cg2d: iter=    54 ; resid.=  2.15962814264309E-06
(PID.TID 0000.0001)  cg2d: iter=    55 ; resid.=  1.85549691727374E-06
(PID.TID 0000.0001)  cg2d: iter=    56 ; resid.=  1.62471177591665E-06
(PID.TID 0000.0001)  cg2d: iter=    57 ; resid.=  1.46035262744304E-06
(PID.TID 0000.0001)  cg2d: iter=    58 ; resid.=  1.19191654432775E-06
(PID.TID 0000.0001)  cg2d: iter=    59 ; resid.=  9.13616231008147E-07
(PID.TID 0000.0001)  cg2d: iter=    60 ; resid.=  7.05141020643735E-07
(PID.TID 0000.0001)  cg2d: iter=    61 ; resid.=  5.41350925744358E-07
(PID.TID 0000.0001)  cg2d: iter=    62 ; resid.=  3.88568746322437E-07
(PID.TID 0000.0001)  cg2d: iter=    63 ; resid.=  2.91506595503156E-07
(PID.TID 0000.0001)  cg2d: iter=    64 ; resid.=  2.41676401338122E-07
(PID.TID 0000.0001)  cg2d: iter=    65 ; resid.=  2.03478669074837E-07
(PID.TID 0000.0001)  cg2d: iter=    66 ; resid.=  1.70742080817591E-07
(PID.TID 0000.0001)  cg2d: iter=    67 ; resid.=  1.45546321203646E-07
(PID.TID 0000.0001)  cg2d: iter=    68 ; resid.=  1.18986099840987E-07
(PID.TID 0000.0001)  cg2d: iter=    69 ; resid.=  9.53864561023328E-08
(PID.TID 0000.0001)  cg2d: iter=    70 ; resid.=  7.30560895476683E-08
(PID.TID 0000.0001)  cg2d: iter=    71 ; resid.=  5.85990335456410E-08
(PID.TID 0000.0001)  cg2d: iter=    72 ; resid.=  4.53988641050593E-08
(PID.TID 0000.0001)  cg2d: iter=    73 ; resid.=  4.01031765808948E-08
(PID.TID 0000.0001)  cg2d: iter=    74 ; resid.=  3.27890354816327E-08
(PID.TID 0000.0001)  cg2d: iter=    75 ; resid.=  2.58634477398058E-08
(PID.TID 0000.0001)  cg2d: iter=    76 ; resid.=  1.97617238629260E-08
(PID.TID 0000.0001)  cg2d: iter=    77 ; resid.=  1.64378886891097E-08
(PID.TID 0000.0001)  cg2d: iter=    78 ; resid.=  1.37807023355566E-08
(PID.TID 0000.0001)  cg2d: iter=    79 ; resid.=  1.17274755074564E-08
(PID.TID 0000.0001)  cg2d: iter=    80 ; resid.=  9.65069065308886E-09
(PID.TID 0000.0001)  cg2d: iter=    81 ; resid.=  8.52090757349247E-09
(PID.TID 0000.0001)  cg2d: iter=    82 ; resid.=  7.44173417585993E-09
(PID.TID 0000.0001)  cg2d: iter=    83 ; resid.=  6.12768235030051E-09
(PID.TID 0000.0001)  cg2d: iter=    84 ; resid.=  5.19952608628299E-09
(PID.TID 0000.0001)  cg2d: iter=    85 ; resid.=  4.12718283508157E-09
(PID.TID 0000.0001)  cg2d: iter=    86 ; resid.=  3.24253913859201E-09
(PID.TID 0000.0001)  cg2d: iter=    87 ; resid.=  2.56312697454191E-09
(PID.TID 0000.0001)  cg2d: iter=    88 ; resid.=  2.03475055420736E-09
(PID.TID 0000.0001)  cg2d: iter=    89 ; resid.=  1.69006856768612E-09
(PID.TID 0000.0001)  cg2d: iter=    90 ; resid.=  1.41278684199303E-09
(PID.TID 0000.0001)  cg2d: iter=    91 ; resid.=  1.14302426820961E-09
(PID.TID 0000.0001)  cg2d: iter=    92 ; resid.=  8.88517599516754E-10
(PID.TID 0000.0001)  cg2d: iter=    93 ; resid.=  7.23736613341033E-10
(PID.TID 0000.0001)  cg2d: iter=    94 ; resid.=  5.87574849611752E-10
(PID.TID 0000.0001)  cg2d: iter=    95 ; resid.=  4.84914008813344E-10
(PID.TID 0000.0001)  cg2d: iter=    96 ; resid.=  3.81750793026708E-10
(PID.TID 0000.0001)  cg2d: iter=    97 ; resid.=  2.99648411498628E-10
(PID.TID 0000.0001)  cg2d: iter=    98 ; resid.=  2.50448310659069E-10
(PID.TID 0000.0001)  cg2d: iter=    99 ; resid.=  1.99783476578189E-10
(PID.TID 0000.0001)  cg2d: iter=   100 ; resid.=  1.68918135625978E-10
(PID.TID 0000.0001)  cg2d: iter=   101 ; resid.=  1.35418134811216E-10
(PID.TID 0000.0001)  cg2d: iter=   102 ; resid.=  1.05986629618805E-10
(PID.TID 0000.0001)  cg2d: iter=   103 ; resid.=  9.06839814039809E-11
(PID.TID 0000.0001)  cg2d: iter=   104 ; resid.=  7.63228044567494E-11
(PID.TID 0000.0001)  cg2d: iter=   105 ; resid.=  6.63728922261787E-11
(PID.TID 0000.0001)  cg2d: iter=   106 ; resid.=  5.31064811144748E-11
(PID.TID 0000.0001)  cg2d: iter=   107 ; resid.=  4.48827093105809E-11
(PID.TID 0000.0001)  cg2d: iter=   108 ; resid.=  3.50369832813864E-11
(PID.TID 0000.0001)  cg2d: iter=   109 ; resid.=  2.49511880388506E-11
(PID.TID 0000.0001)  cg2d: iter=   110 ; resid.=  1.83776270056924E-11
(PID.TID 0000.0001)  cg2d: iter=   111 ; resid.=  1.46454483860096E-11
(PID.TID 0000.0001)  cg2d: iter=   112 ; resid.=  1.29696550200067E-11
(PID.TID 0000.0001)  cg2d: iter=   113 ; resid.=  9.58633613916866E-12
(PID.TID 0000.0001)  cg2d: iter=   114 ; resid.=  6.96191398791969E-12
(PID.TID 0000.0001)  cg2d: iter=   115 ; resid.=  5.15699778492249E-12
(PID.TID 0000.0001)  cg2d: iter=   116 ; resid.=  3.76223798681819E-12
(PID.TID 0000.0001)  cg2d: iter=   117 ; resid.=  2.77341842123731E-12
(PID.TID 0000.0001)  cg2d: iter=   118 ; resid.=  2.12920241101571E-12
(PID.TID 0000.0001)  cg2d: iter=   119 ; resid.=  1.64678318787260E-12
(PID.TID 0000.0001)  cg2d: iter=   120 ; resid.=  1.20857253338051E-12
(PID.TID 0000.0001)  cg2d: iter=   121 ; resid.=  8.93078538779295E-13
(PID.TID 0000.0001)  cg2d: iter=   122 ; resid.=  6.94815661605102E-13
(PID.TID 0000.0001)  cg2d: iter=   123 ; resid.=  5.59425621890065E-13
(PID.TID 0000.0001)  cg2d: iter=   124 ; resid.=  4.63463967401760E-13
(PID.TID 0000.0001)  cg2d: iter=   125 ; resid.=  3.79611957699864E-13
(PID.TID 0000.0001)  cg2d: iter=   126 ; resid.=  2.98345436235224E-13
(PID.TID 0000.0001)  cg2d: iter=   127 ; resid.=  1.94227101850184E-13
(PID.TID 0000.0001)  cg2d: iter=   128 ; resid.=  1.22780429537452E-13
(PID.TID 0000.0001)  cg2d: iter=   129 ; resid.=  7.78993250996831E-14
DEBUG_STATS_RL:    cg2d_x (SOLVE_FOR_PRESSURE)  min= -1.77747691107506E+01
DEBUG_STATS_RL:    cg2d_x (SOLVE_FOR_PRESSURE)  max=  8.20568718830831E+00
DEBUG_STATS_RL:    cg2d_x (SOLVE_FOR_PRESSURE) mean= -1.83759953743287E+00
DEBUG_STATS_RL:    cg2d_x (SOLVE_FOR_PRESSURE) S.D.=  7.07130763958636E+00
(PID.TID 0000.0001)      cg2d_init_res =   1.61209056957133E-01
(PID.TID 0000.0001)      cg2d_iters(min,last) =      -1     129
(PID.TID 0000.0001)      cg2d_last_res =   7.78993250996831E-14
(PID.TID 0000.0001) // =======================================================
(PID.TID 0000.0001) // Begin MONITOR dynamic field statistics
(PID.TID 0000.0001) // =======================================================
(PID.TID 0000.0001) %MON time_tsnumber                =                    99
(PID.TID 0000.0001) %MON time_secondsf                =   8.5536000000000E+06
(PID.TID 0000.0001) %MON dynstat_eta_max              =   8.3646148708539E-01
(PID.TID 0000.0001) %MON dynstat_eta_min              =  -1.8119030693931E+00
(PID.TID 0000.0001) %MON dynstat_eta_mean             =  -5.8674309901705E-03
(PID.TID 0000.0001) %MON dynstat_eta_sd               =   6.1619469885054E-01
(PID.TID 0000.0001) %MON dynstat_eta_del2             =   2.5450033425782E-03
(PID.TID 0000.0001) %MON dynstat_uvel_max             =   1.3465139847820E-01
(PID.TID 0000.0001) %MON dynstat_uvel_min             =  -1.3210138371423E-01
(PID.TID 0000.0001) %MON dynstat_uvel_mean            =   2.5364509406333E-03
(PID.TID 0000.0001) %MON dynstat_uvel_sd              =   1.4126632662747E-02
(PID.TID 0000.0001) %MON dynstat_uvel_del2            =   9.3553090409670E-05
(PID.TID 0000.0001) %MON dynstat_vvel_max             =   1.2709382177194E-01
(PID.TID 0000.0001) %MON dynstat_vvel_min             =  -9.0712833902700E-02
(PID.TID 0000.0001) %MON dynstat_vvel_mean            =   2.7101969996614E-05
(PID.TID 0000.0001) %MON dynstat_vvel_sd              =   7.7071186846252E-03
(PID.TID 0000.0001) %MON dynstat_vvel_del2            =   7.4009292369260E-05
(PID.TID 0000.0001) %MON dynstat_wvel_max             =   1.2164262295653E-04
(PID.TID 0000.0001) %MON dynstat_wvel_min             =  -6.3632691805395E-05
(PID.TID 0000.0001) %MON dynstat_wvel_mean            =   7.5313386287231E-23
(PID.TID 0000.0001) %MON dynstat_wvel_sd              =   9.0898091043527E-06
(PID.TID 0000.0001) %MON dynstat_wvel_del2            =   8.8567202597655E-08
(PID.TID 0000.0001) %MON dynstat_theta_max            =   3.1320227135201E+01
(PID.TID 0000.0001) %MON dynstat_theta_min            =  -1.9236144609379E+00
(PID.TID 0000.0001) %MON dynstat_theta_mean           =   3.6342767387766E+00
(PID.TID 0000.0001) %MON dynstat_theta_sd             =   4.4290604113386E+00
(PID.TID 0000.0001) %MON dynstat_theta_del2           =   4.8004781662188E-03
(PID.TID 0000.0001) %MON dynstat_salt_max             =   3.7483001556052E+01
(PID.TID 0000.0001) %MON dynstat_salt_min             =   2.9982511010386E+01
(PID.TID 0000.0001) %MON dynstat_salt_mean            =   3.4727996153005E+01
(PID.TID 0000.0001) %MON dynstat_salt_sd              =   2.9670538508988E-01
(PID.TID 0000.0001) %MON dynstat_salt_del2            =   1.0000891677544E-03
(PID.TID 0000.0001) %MON dynstat_sst_max              =   3.1320227135201E+01
(PID.TID 0000.0001) %MON dynstat_sst_min              =  -1.9236144609379E+00
(PID.TID 0000.0001) %MON dynstat_sst_mean             =   1.9027064235498E+01
(PID.TID 0000.0001) %MON dynstat_sst_sd               =   9.3190669688298E+00
(PID.TID 0000.0001) %MON dynstat_sst_del2             =   2.9454518749825E-02
(PID.TID 0000.0001) %MON dynstat_sss_max              =   3.7483001556052E+01
(PID.TID 0000.0001) %MON dynstat_sss_min              =   2.9982511010386E+01
(PID.TID 0000.0001) %MON dynstat_sss_mean             =   3.4845228710497E+01
(PID.TID 0000.0001) %MON dynstat_sss_sd               =   9.9459406770161E-01
(PID.TID 0000.0001) %MON dynstat_sss_del2             =   8.3803101176235E-03
(PID.TID 0000.0001) %MON forcing_qnet_max             =   1.6628729044596E+02
(PID.TID 0000.0001) %MON forcing_qnet_min             =  -1.5401167551676E+02
(PID.TID 0000.0001) %MON forcing_qnet_mean            =   1.8667718761569E+00
(PID.TID 0000.0001) %MON forcing_qnet_sd              =   4.2543345917318E+01
(PID.TID 0000.0001) %MON forcing_qnet_del2            =   7.9400470474141E-01
(PID.TID 0000.0001) %MON forcing_qsw_max              =   0.0000000000000E+00
(PID.TID 0000.0001) %MON forcing_qsw_min              =   0.0000000000000E+00
(PID.TID 0000.0001) %MON forcing_qsw_mean             =   0.0000000000000E+00
(PID.TID 0000.0001) %MON forcing_qsw_sd               =   0.0000000000000E+00
(PID.TID 0000.0001) %MON forcing_qsw_del2             =   0.0000000000000E+00
(PID.TID 0000.0001) %MON forcing_empmr_max            =   6.6896888502773E-05
(PID.TID 0000.0001) %MON forcing_empmr_min            =  -8.3605877421178E-05
(PID.TID 0000.0001) %MON forcing_empmr_mean           =   3.4467662644683E-08
(PID.TID 0000.0001) %MON forcing_empmr_sd             =   2.5512895431700E-05
(PID.TID 0000.0001) %MON forcing_empmr_del2           =   3.6941383160522E-07
(PID.TID 0000.0001) %MON forcing_fu_max               =   3.4395322799683E-01
(PID.TID 0000.0001) %MON forcing_fu_min               =  -4.1001707613468E-01
(PID.TID 0000.0001) %MON forcing_fu_mean              =   1.7531311070933E-02
(PID.TID 0000.0001) %MON forcing_fu_sd                =   1.0160162235513E-01
(PID.TID 0000.0001) %MON forcing_fu_del2              =   8.0229753052437E-04
(PID.TID 0000.0001) %MON forcing_fv_max               =   1.8109231789907E-01
(PID.TID 0000.0001) %MON forcing_fv_min               =  -1.4540471682946E-01
(PID.TID 0000.0001) %MON forcing_fv_mean              =  -6.6906119754649E-03
(PID.TID 0000.0001) %MON forcing_fv_sd                =   3.9065099338649E-02
(PID.TID 0000.0001) %MON forcing_fv_del2              =   4.2781951918176E-04
(PID.TID 0000.0001) %MON trAdv_CFL_u_max              =   4.5840018175496E-02
(PID.TID 0000.0001) %MON trAdv_CFL_v_max              =   2.4620979001930E-02
(PID.TID 0000.0001) %MON trAdv_CFL_w_max              =   2.6303863941491E-02
(PID.TID 0000.0001) %MON advcfl_uvel_max              =   4.5519130934541E-02
(PID.TID 0000.0001) %MON advcfl_vvel_max              =   2.4692291230449E-02
(PID.TID 0000.0001) %MON advcfl_wvel_max              =   2.8454730892674E-02
(PID.TID 0000.0001) %MON advcfl_W_hf_max              =   3.0546990517135E-02
(PID.TID 0000.0001) %MON pe_b_mean                    =   4.8591073186178E-04
(PID.TID 0000.0001) %MON ke_max                       =   1.0516188314763E-02
(PID.TID 0000.0001) %MON ke_mean                      =   1.2025424669242E-04
(PID.TID 0000.0001) %MON ke_vol                       =   1.3226782436723E+18
(PID.TID 0000.0001) %MON vort_r_min                   =  -3.7535413127264E-07
(PID.TID 0000.0001) %MON vort_r_max                   =   3.6039035769664E-07
(PID.TID 0000.0001) %MON vort_a_mean                  =  -2.5274807125049E-05
(PID.TID 0000.0001) %MON vort_a_sd                    =   7.3604687441109E-05
(PID.TID 0000.0001) %MON vort_p_mean                  =  -3.1845655456252E-05
(PID.TID 0000.0001) %MON vort_p_sd                    =   1.3162501228909E-04
(PID.TID 0000.0001) %MON surfExpan_theta_mean         =   1.2399034235180E-07
(PID.TID 0000.0001) %MON surfExpan_salt_mean          =   2.7592295235793E-09
(PID.TID 0000.0001) // =======================================================
(PID.TID 0000.0001) // End MONITOR dynamic field statistics
(PID.TID 0000.0001) // =======================================================
 EXTERNAL_FIELDS_LOAD,        99 : iP,iLd,i0,i1=    3    4    3    4 ; Wght=  0.2000000000  0.8000000000
 EXTERNAL_FIELDS_LOAD: (fu0,1),fu,fv= -2.7199E-02 -3.7252E-02 -3.5241E-02 -2.8288E-02
 EXTERNAL_FIELDS_LOAD: SST,SSS,Q,E-P= -8.5119E-03  3.4571E+01  1.2637E+02  8.0314E-06
DEBUG_STATS_RL:          Uvel (THERMODYNAMICS)  min= -1.32101383714227E-01
DEBUG_STATS_RL:          Uvel (THERMODYNAMICS)  max=  1.34651398478200E-01
DEBUG_STATS_RL:          Uvel (THERMODYNAMICS) mean=  6.03000496234503E-03
DEBUG_STATS_RL:          Uvel (THERMODYNAMICS) S.D.=  2.23344029701648E-02
DEBUG_STATS_RL:          Vvel (THERMODYNAMICS)  min= -9.07128339027002E-02
DEBUG_STATS_RL:          Vvel (THERMODYNAMICS)  max=  1.27093821771943E-01
DEBUG_STATS_RL:          Vvel (THERMODYNAMICS) mean=  8.34208338463777E-04
DEBUG_STATS_RL:          Vvel (THERMODYNAMICS) S.D.=  1.25305186857534E-02
DEBUG_STATS_RL:          Wvel (THERMODYNAMICS)  min= -6.36326918053952E-05
DEBUG_STATS_RL:          Wvel (THERMODYNAMICS)  max=  1.21642622956525E-04
DEBUG_STATS_RL:          Wvel (THERMODYNAMICS) mean= -3.11903747351648E-08
DEBUG_STATS_RL:          Wvel (THERMODYNAMICS) S.D.=  7.94271899508878E-06
DEBUG_STATS_RL:         Theta (THERMODYNAMICS)  min= -1.92270544049466E+00
DEBUG_STATS_RL:         Theta (THERMODYNAMICS)  max=  3.13292124210501E+01
DEBUG_STATS_RL:         Theta (THERMODYNAMICS) mean=  3.22874359355586E+00
DEBUG_STATS_RL:         Theta (THERMODYNAMICS) S.D.=  5.88865240050859E+00
DEBUG_STATS_RL:          Salt (THERMODYNAMICS)  min=  9.99999999999996E-03
DEBUG_STATS_RL:          Salt (THERMODYNAMICS)  max=  3.74840078045803E+01
DEBUG_STATS_RL:          Salt (THERMODYNAMICS) mean=  1.88546809077888E+01
DEBUG_STATS_RL:          Salt (THERMODYNAMICS) S.D.=  1.73002527382692E+01
DEBUG_STATS_RL:         GtNm1 (THERMODYNAMICS)  min= -2.49834029561691E-06
DEBUG_STATS_RL:         GtNm1 (THERMODYNAMICS)  max=  1.79722286321467E-06
DEBUG_STATS_RL:         GtNm1 (THERMODYNAMICS) mean= -3.13131821196406E-09
DEBUG_STATS_RL:         GtNm1 (THERMODYNAMICS) S.D.=  1.23740555485433E-07
DEBUG_STATS_RL:         GsNm1 (THERMODYNAMICS)  min= -2.78317501005480E-07
DEBUG_STATS_RL:         GsNm1 (THERMODYNAMICS)  max=  1.78135695848284E-07
DEBUG_STATS_RL:         GsNm1 (THERMODYNAMICS) mean= -1.87176815463154E-10
DEBUG_STATS_RL:         GsNm1 (THERMODYNAMICS) S.D.=  1.14756308076794E-08
DEBUG_STATS_RL:                EtaN (DYNAMICS)  min= -1.81190306939309E+00
DEBUG_STATS_RL:                EtaN (DYNAMICS)  max=  8.36461487085388E-01
DEBUG_STATS_RL:                EtaN (DYNAMICS) mean= -1.87319015028837E-01
DEBUG_STATS_RL:                EtaN (DYNAMICS) S.D.=  7.20826466828379E-01
DEBUG_STATS_RL:                Uvel (DYNAMICS)  min= -1.32101383714227E-01
DEBUG_STATS_RL:                Uvel (DYNAMICS)  max=  1.34651398478200E-01
DEBUG_STATS_RL:                Uvel (DYNAMICS) mean=  6.03000496234503E-03
DEBUG_STATS_RL:                Uvel (DYNAMICS) S.D.=  2.23344029701648E-02
DEBUG_STATS_RL:                Vvel (DYNAMICS)  min= -9.07128339027002E-02
DEBUG_STATS_RL:                Vvel (DYNAMICS)  max=  1.27093821771943E-01
DEBUG_STATS_RL:                Vvel (DYNAMICS) mean=  8.34208338463777E-04
DEBUG_STATS_RL:                Vvel (DYNAMICS) S.D.=  1.25305186857534E-02
DEBUG_STATS_RL:                Wvel (DYNAMICS)  min= -6.36326918053952E-05
DEBUG_STATS_RL:                Wvel (DYNAMICS)  max=  1.21642622956525E-04
DEBUG_STATS_RL:                Wvel (DYNAMICS) mean= -3.11903747351648E-08
DEBUG_STATS_RL:                Wvel (DYNAMICS) S.D.=  7.94271899508878E-06
DEBUG_STATS_RL:               Theta (DYNAMICS)  min= -1.92270544049466E+00
DEBUG_STATS_RL:               Theta (DYNAMICS)  max=  3.13292124210501E+01
DEBUG_STATS_RL:               Theta (DYNAMICS) mean=  3.22874359355586E+00
DEBUG_STATS_RL:               Theta (DYNAMICS) S.D.=  5.88865240050859E+00
DEBUG_STATS_RL:                Salt (DYNAMICS)  min=  9.99999999999996E-03
DEBUG_STATS_RL:                Salt (DYNAMICS)  max=  3.74840078045803E+01
DEBUG_STATS_RL:                Salt (DYNAMICS) mean=  1.88546809077888E+01
DEBUG_STATS_RL:                Salt (DYNAMICS) S.D.=  1.73002527382692E+01
DEBUG_STATS_RL:                  Gu (DYNAMICS)  min= -1.31116657240926E-01
DEBUG_STATS_RL:                  Gu (DYNAMICS)  max=  1.38331927235329E-01
DEBUG_STATS_RL:                  Gu (DYNAMICS) mean=  6.00346773808587E-03
DEBUG_STATS_RL:                  Gu (DYNAMICS) S.D.=  2.27654305180836E-02
DEBUG_STATS_RL:                  Gv (DYNAMICS)  min= -9.00489303105605E-02
DEBUG_STATS_RL:                  Gv (DYNAMICS)  max=  1.26371136514294E-01
DEBUG_STATS_RL:                  Gv (DYNAMICS) mean=  3.52271731875908E-03
DEBUG_STATS_RL:                  Gv (DYNAMICS) S.D.=  1.41597780641876E-02
DEBUG_STATS_RL:               GuNm1 (DYNAMICS)  min= -9.26466182823618E-06
DEBUG_STATS_RL:               GuNm1 (DYNAMICS)  max=  1.03680772508748E-05
DEBUG_STATS_RL:               GuNm1 (DYNAMICS) mean=  1.79720603907824E-08
DEBUG_STATS_RL:               GuNm1 (DYNAMICS) S.D.=  1.23248287646969E-06
DEBUG_STATS_RL:               GvNm1 (DYNAMICS)  min= -9.38203337541066E-06
DEBUG_STATS_RL:               GvNm1 (DYNAMICS)  max=  1.49263715871372E-05
DEBUG_STATS_RL:               GvNm1 (DYNAMICS) mean=  7.43449335877857E-07
DEBUG_STATS_RL:               GvNm1 (DYNAMICS) S.D.=  2.60180723826058E-06
DEBUG_STATS_RL:               GtNm1 (DYNAMICS)  min= -2.49834029561691E-06
DEBUG_STATS_RL:               GtNm1 (DYNAMICS)  max=  1.79722286321467E-06
DEBUG_STATS_RL:               GtNm1 (DYNAMICS) mean= -3.13131821196406E-09
DEBUG_STATS_RL:               GtNm1 (DYNAMICS) S.D.=  1.23740555485433E-07
DEBUG_STATS_RL:               GsNm1 (DYNAMICS)  min= -2.78317501005480E-07
DEBUG_STATS_RL:               GsNm1 (DYNAMICS)  max=  1.78135695848284E-07
DEBUG_STATS_RL:               GsNm1 (DYNAMICS) mean= -1.87176815463154E-10
DEBUG_STATS_RL:               GsNm1 (DYNAMICS) S.D.=  1.14756308076794E-08
DEBUG_STATS_RL:    cg2d_b (SOLVE_FOR_PRESSURE)  min= -2.78791519594974E+04
DEBUG_STATS_RL:    cg2d_b (SOLVE_FOR_PRESSURE)  max=  3.17105279915212E+04
DEBUG_STATS_RL:    cg2d_b (SOLVE_FOR_PRESSURE) mean=  5.62446765850464E+00
DEBUG_STATS_RL:    cg2d_b (SOLVE_FOR_PRESSURE) S.D.=  4.03068418621093E+03
 cg2d: Sum(rhs),rhsMax =   4.10609455412412E-01  2.08283238106609E+00
(PID.TID 0000.0001)  cg2d: iter=     1 ; resid.=  5.05040038386470E-02
(PID.TID 0000.0001)  cg2d: iter=     2 ; resid.=  3.14947757843226E-02
(PID.TID 0000.0001)  cg2d: iter=     3 ; resid.=  2.60921349420334E-02
(PID.TID 0000.0001)  cg2d: iter=     4 ; resid.=  2.29976380191555E-02
(PID.TID 0000.0001)  cg2d: iter=     5 ; resid.=  1.75345335127334E-02
(PID.TID 0000.0001)  cg2d: iter=     6 ; resid.=  1.43101629650053E-02
(PID.TID 0000.0001)  cg2d: iter=     7 ; resid.=  1.21998550899368E-02
(PID.TID 0000.0001)  cg2d: iter=     8 ; resid.=  1.12641100197059E-02
(PID.TID 0000.0001)  cg2d: iter=     9 ; resid.=  9.75888077460836E-03
(PID.TID 0000.0001)  cg2d: iter=    10 ; resid.=  7.95464061016679E-03
(PID.TID 0000.0001)  cg2d: iter=    11 ; resid.=  6.84787595784195E-03
(PID.TID 0000.0001)  cg2d: iter=    12 ; resid.=  5.92986363537360E-03
(PID.TID 0000.0001)  cg2d: iter=    13 ; resid.=  5.20300711035188E-03
(PID.TID 0000.0001)  cg2d: iter=    14 ; resid.=  4.32319030222220E-03
(PID.TID 0000.0001)  cg2d: iter=    15 ; resid.=  3.60711480127708E-03
(PID.TID 0000.0001)  cg2d: iter=    16 ; resid.=  2.79936737764310E-03
(PID.TID 0000.0001)  cg2d: iter=    17 ; resid.=  2.35524220862179E-03
(PID.TID 0000.0001)  cg2d: iter=    18 ; resid.=  1.95062450667869E-03
(PID.TID 0000.0001)  cg2d: iter=    19 ; resid.=  1.65506089083298E-03
(PID.TID 0000.0001)  cg2d: iter=    20 ; resid.=  1.34608395530565E-03
(PID.TID 0000.0001)  cg2d: iter=    21 ; resid.=  1.14512599194204E-03
(PID.TID 0000.0001)  cg2d: iter=    22 ; resid.=  1.01723638911826E-03
(PID.TID 0000.0001)  cg2d: iter=    23 ; resid.=  8.74928176417400E-04
(PID.TID 0000.0001)  cg2d: iter=    24 ; resid.=  7.91675568994314E-04
(PID.TID 0000.0001)  cg2d: iter=    25 ; resid.=  6.26081210711836E-04
(PID.TID 0000.0001)  cg2d: iter=    26 ; resid.=  5.17060685145618E-04
(PID.TID 0000.0001)  cg2d: iter=    27 ; resid.=  4.56890162348179E-04
(PID.TID 0000.0001)  cg2d: iter=    28 ; resid.=  4.23376050392020E-04
(PID.TID 0000.0001)  cg2d: iter=    29 ; resid.=  3.52526091030691E-04
(PID.TID 0000.0001)  cg2d: iter=    30 ; resid.=  2.73540265781354E-04
(PID.TID 0000.0001)  cg2d: iter=    31 ; resid.=  2.26057955825949E-04
(PID.TID 0000.0001)  cg2d: iter=    32 ; resid.=  1.81847652357458E-04
(PID.TID 0000.0001)  cg2d: iter=    33 ; resid.=  1.35291511894672E-04
(PID.TID 0000.0001)  cg2d: iter=    34 ; resid.=  1.06037347025353E-04
(PID.TID 0000.0001)  cg2d: iter=    35 ; resid.=  8.55161181897559E-05
(PID.TID 0000.0001)  cg2d: iter=    36 ; resid.=  7.38980387371792E-05
(PID.TID 0000.0001)  cg2d: iter=    37 ; resid.=  6.58642164035991E-05
(PID.TID 0000.0001)  cg2d: iter=    38 ; resid.=  5.60241561473148E-05
(PID.TID 0000.0001)  cg2d: iter=    39 ; resid.=  4.53648041375051E-05
(PID.TID 0000.0001)  cg2d: iter=    40 ; resid.=  3.78147028741000E-05
(PID.TID 0000.0001)  cg2d: iter=    41 ; resid.=  3.06087293699053E-05
(PID.TID 0000.0001)  cg2d: iter=    42 ; resid.=  2.81397334828602E-05
(PID.TID 0000.0001)  cg2d: iter=    43 ; resid.=  2.55951737837781E-05
(PID.TID 0000.0001)  cg2d: iter=    44 ; resid.=  2.24522136255455E-05
(PID.TID 0000.0001)  cg2d: iter=    45 ; resid.=  1.80331813324132E-05
(PID.TID 0000.0001)  cg2d: iter=    46 ; resid.=  1.43539805028989E-05
(PID.TID 0000.0001)  cg2d: iter=    47 ; resid.=  1.17024740995176E-05
(PID.TID 0000.0001)  cg2d: iter=    48 ; resid.=  9.60190879226530E-06
(PID.TID 0000.0001)  cg2d: iter=    49 ; resid.=  7.88492324351095E-06
(PID.TID 0000.0001)  cg2d: iter=    50 ; resid.=  6.22086750571754E-06
(PID.TID 0000.0001)  cg2d: iter=    51 ; resid.=  4.80699278696085E-06
(PID.TID 0000.0001)  cg2d: iter=    52 ; resid.=  4.05700197213665E-06
(PID.TID 0000.0001)  cg2d: iter=    53 ; resid.=  3.40229223404077E-06
(PID.TID 0000.0001)  cg2d: iter=    54 ; resid.=  3.01646844550169E-06
(PID.TID 0000.0001)  cg2d: iter=    55 ; resid.=  2.77662842269160E-06
(PID.TID 0000.0001)  cg2d: iter=    56 ; resid.=  2.43479418520932E-06
(PID.TID 0000.0001)  cg2d: iter=    57 ; resid.=  2.10906460367501E-06
(PID.TID 0000.0001)  cg2d: iter=    58 ; resid.=  1.61961221217529E-06
(PID.TID 0000.0001)  cg2d: iter=    59 ; resid.=  1.18012918883794E-06
(PID.TID 0000.0001)  cg2d: iter=    60 ; resid.=  8.78758330705196E-07
(PID.TID 0000.0001)  cg2d: iter=    61 ; resid.=  6.56139005796864E-07
(PID.TID 0000.0001)  cg2d: iter=    62 ; resid.=  4.70236173649780E-07
(PID.TID 0000.0001)  cg2d: iter=    63 ; resid.=  3.52514779437977E-07
(PID.TID 0000.0001)  cg2d: iter=    64 ; resid.=  2.88632051543376E-07
(PID.TID 0000.0001)  cg2d: iter=    65 ; resid.=  2.36120982339301E-07
(PID.TID 0000.0001)  cg2d: iter=    66 ; resid.=  1.96017302480594E-07
(PID.TID 0000.0001)  cg2d: iter=    67 ; resid.=  1.63196067725681E-07
(PID.TID 0000.0001)  cg2d: iter=    68 ; resid.=  1.34410863590753E-07
(PID.TID 0000.0001)  cg2d: iter=    69 ; resid.=  1.10405989433681E-07
(PID.TID 0000.0001)  cg2d: iter=    70 ; resid.=  8.68956398671610E-08
(PID.TID 0000.0001)  cg2d: iter=    71 ; resid.=  7.12665029098900E-08
(PID.TID 0000.0001)  cg2d: iter=    72 ; resid.=  5.81214777180438E-08
(PID.TID 0000.0001)  cg2d: iter=    73 ; resid.=  5.55511431809410E-08
(PID.TID 0000.0001)  cg2d: iter=    74 ; resid.=  4.81604235050019E-08
(PID.TID 0000.0001)  cg2d: iter=    75 ; resid.=  4.02881107847997E-08
(PID.TID 0000.0001)  cg2d: iter=    76 ; resid.=  3.23389996635388E-08
(PID.TID 0000.0001)  cg2d: iter=    77 ; resid.=  2.82114272333487E-08
(PID.TID 0000.0001)  cg2d: iter=    78 ; resid.=  2.39161201208677E-08
(PID.TID 0000.0001)  cg2d: iter=    79 ; resid.=  1.98046685811701E-08
(PID.TID 0000.0001)  cg2d: iter=    80 ; resid.=  1.54827114273392E-08
(PID.TID 0000.0001)  cg2d: iter=    81 ; resid.=  1.26989354585482E-08
(PID.TID 0000.0001)  cg2d: iter=    82 ; resid.=  1.01081145064109E-08
(PID.TID 0000.0001)  cg2d: iter=    83 ; resid.=  7.62051337260237E-09
(PID.TID 0000.0001)  cg2d: iter=    84 ; resid.=  6.08287659159694E-09
(PID.TID 0000.0001)  cg2d: iter=    85 ; resid.=  4.58205969012997E-09
(PID.TID 0000.0001)  cg2d: iter=    86 ; resid.=  3.41663614031488E-09
(PID.TID 0000.0001)  cg2d: iter=    87 ; resid.=  2.56554469921211E-09
(PID.TID 0000.0001)  cg2d: iter=    88 ; resid.=  1.94664743255806E-09
(PID.TID 0000.0001)  cg2d: iter=    89 ; resid.=  1.60423308985166E-09
(PID.TID 0000.0001)  cg2d: iter=    90 ; resid.=  1.36096632731093E-09
(PID.TID 0000.0001)  cg2d: iter=    91 ; resid.=  1.11748421760605E-09
(PID.TID 0000.0001)  cg2d: iter=    92 ; resid.=  9.02349047435258E-10
(PID.TID 0000.0001)  cg2d: iter=    93 ; resid.=  7.74578215003605E-10
(PID.TID 0000.0001)  cg2d: iter=    94 ; resid.=  6.72979227919408E-10
(PID.TID 0000.0001)  cg2d: iter=    95 ; resid.=  5.84676101727897E-10
(PID.TID 0000.0001)  cg2d: iter=    96 ; resid.=  4.81880545301600E-10
(PID.TID 0000.0001)  cg2d: iter=    97 ; resid.=  3.89747924580894E-10
(PID.TID 0000.0001)  cg2d: iter=    98 ; resid.=  3.22439975155580E-10
(PID.TID 0000.0001)  cg2d: iter=    99 ; resid.=  2.49055886686379E-10
(PID.TID 0000.0001)  cg2d: iter=   100 ; resid.=  1.99121283509000E-10
(PID.TID 0000.0001)  cg2d: iter=   101 ; resid.=  1.50362832712529E-10
(PID.TID 0000.0001)  cg2d: iter=   102 ; resid.=  1.08118722826901E-10
(PID.TID 0000.0001)  cg2d: iter=   103 ; resid.=  8.30278738287475E-11
(PID.TID 0000.0001)  cg2d: iter=   104 ; resid.=  6.08819735482893E-11
(PID.TID 0000.0001)  cg2d: iter=   105 ; resid.=  4.85999861549027E-11
(PID.TID 0000.0001)  cg2d: iter=   106 ; resid.=  3.69204314661036E-11
(PID.TID 0000.0001)  cg2d: iter=   107 ; resid.=  2.96522885257431E-11
(PID.TID 0000.0001)  cg2d: iter=   108 ; resid.=  2.29342657098039E-11
(PID.TID 0000.0001)  cg2d: iter=   109 ; resid.=  1.61434701037397E-11
(PID.TID 0000.0001)  cg2d: iter=   110 ; resid.=  1.13298146664750E-11
(PID.TID 0000.0001)  cg2d: iter=   111 ; resid.=  8.36513469864291E-12
(PID.TID 0000.0001)  cg2d: iter=   112 ; resid.=  7.20799344382268E-12
(PID.TID 0000.0001)  cg2d: iter=   113 ; resid.=  5.59404329774056E-12
(PID.TID 0000.0001)  cg2d: iter=   114 ; resid.=  4.21408364995858E-12
(PID.TID 0000.0001)  cg2d: iter=   115 ; resid.=  3.11510483452787E-12
(PID.TID 0000.0001)  cg2d: iter=   116 ; resid.=  2.22559679879017E-12
(PID.TID 0000.0001)  cg2d: iter=   117 ; resid.=  1.60278554630623E-12
(PID.TID 0000.0001)  cg2d: iter=   118 ; resid.=  1.17798111584373E-12
(PID.TID 0000.0001)  cg2d: iter=   119 ; resid.=  8.75483072022624E-13
(PID.TID 0000.0001)  cg2d: iter=   120 ; resid.=  5.99336972023244E-13
(PID.TID 0000.0001)  cg2d: iter=   121 ; resid.=  3.95156072425105E-13
(PID.TID 0000.0001)  cg2d: iter=   122 ; resid.=  2.57939305446295E-13
(PID.TID 0000.0001)  cg2d: iter=   123 ; resid.=  1.69756054090394E-13
(PID.TID 0000.0001)  cg2d: iter=   124 ; resid.=  1.14764400941546E-13
(PID.TID 0000.0001)  cg2d: iter=   125 ; resid.=  8.36435070561815E-14
DEBUG_STATS_RL:    cg2d_x (SOLVE_FOR_PRESSURE)  min= -1.78585004559410E+01
DEBUG_STATS_RL:    cg2d_x (SOLVE_FOR_PRESSURE)  max=  8.22503857906214E+00
DEBUG_STATS_RL:    cg2d_x (SOLVE_FOR_PRESSURE) mean= -1.84001759013215E+00
DEBUG_STATS_RL:    cg2d_x (SOLVE_FOR_PRESSURE) S.D.=  7.09135539987456E+00
(PID.TID 0000.0001)      cg2d_init_res =   1.59077479420586E-01
(PID.TID 0000.0001)      cg2d_iters(min,last) =      -1     125
(PID.TID 0000.0001)      cg2d_last_res =   8.36435070561815E-14
(PID.TID 0000.0001) // =======================================================
(PID.TID 0000.0001) // Begin MONITOR dynamic field statistics
(PID.TID 0000.0001) // =======================================================
(PID.TID 0000.0001) %MON time_tsnumber                =                   100
(PID.TID 0000.0001) %MON time_secondsf                =   8.6400000000000E+06
(PID.TID 0000.0001) %MON dynstat_eta_max              =   8.3843410591863E-01
(PID.TID 0000.0001) %MON dynstat_eta_min              =  -1.8204383747140E+00
(PID.TID 0000.0001) %MON dynstat_eta_mean             =  -5.8684345906838E-03
(PID.TID 0000.0001) %MON dynstat_eta_sd               =   6.1816037095889E-01
(PID.TID 0000.0001) %MON dynstat_eta_del2             =   2.5441160294662E-03
(PID.TID 0000.0001) %MON dynstat_uvel_max             =   1.3597736493021E-01
(PID.TID 0000.0001) %MON dynstat_uvel_min             =  -1.3103713648103E-01
(PID.TID 0000.0001) %MON dynstat_uvel_mean            =   2.5708344120158E-03
(PID.TID 0000.0001) %MON dynstat_uvel_sd              =   1.4136279778728E-02
(PID.TID 0000.0001) %MON dynstat_uvel_del2            =   9.3657213775798E-05
(PID.TID 0000.0001) %MON dynstat_vvel_max             =   1.2714046291355E-01
(PID.TID 0000.0001) %MON dynstat_vvel_min             =  -9.0496046187940E-02
(PID.TID 0000.0001) %MON dynstat_vvel_mean            =   2.1342215342563E-05
(PID.TID 0000.0001) %MON dynstat_vvel_sd              =   7.6707272339261E-03
(PID.TID 0000.0001) %MON dynstat_vvel_del2            =   7.3621164296074E-05
(PID.TID 0000.0001) %MON dynstat_wvel_max             =   1.2310702408939E-04
(PID.TID 0000.0001) %MON dynstat_wvel_min             =  -6.3222402601484E-05
(PID.TID 0000.0001) %MON dynstat_wvel_mean            =   1.5023684488545E-22
(PID.TID 0000.0001) %MON dynstat_wvel_sd              =   9.0844946235377E-06
(PID.TID 0000.0001) %MON dynstat_wvel_del2            =   8.8242026637374E-08
(PID.TID 0000.0001) %MON dynstat_theta_max            =   3.1329212421050E+01
(PID.TID 0000.0001) %MON dynstat_theta_min            =  -1.9227054404947E+00
(PID.TID 0000.0001) %MON dynstat_theta_mean           =   3.6342601028472E+00
(PID.TID 0000.0001) %MON dynstat_theta_sd             =   4.4290338176301E+00
(PID.TID 0000.0001) %MON dynstat_theta_del2           =   4.7988634701578E-03
(PID.TID 0000.0001) %MON dynstat_salt_max             =   3.7484007804580E+01
(PID.TID 0000.0001) %MON dynstat_salt_min             =   2.9985694267555E+01
(PID.TID 0000.0001) %MON dynstat_salt_mean            =   3.4727996489627E+01
(PID.TID 0000.0001) %MON dynstat_salt_sd              =   2.9671422501734E-01
(PID.TID 0000.0001) %MON dynstat_salt_del2            =   1.0002056501411E-03
(PID.TID 0000.0001) %MON dynstat_sst_max              =   3.1329212421050E+01
(PID.TID 0000.0001) %MON dynstat_sst_min              =  -1.9227054404947E+00
(PID.TID 0000.0001) %MON dynstat_sst_mean             =   1.9022505350266E+01
(PID.TID 0000.0001) %MON dynstat_sst_sd               =   9.3263009616787E+00
(PID.TID 0000.0001) %MON dynstat_sst_del2             =   2.9467413376404E-02
(PID.TID 0000.0001) %MON dynstat_sss_max              =   3.7484007804580E+01
(PID.TID 0000.0001) %MON dynstat_sss_min              =   2.9985694267555E+01
(PID.TID 0000.0001) %MON dynstat_sss_mean             =   3.4844983547363E+01
(PID.TID 0000.0001) %MON dynstat_sss_sd               =   9.9500315807895E-01
(PID.TID 0000.0001) %MON dynstat_sss_del2             =   8.3858356719102E-03
(PID.TID 0000.0001) %MON forcing_qnet_max             =   1.6158205566406E+02
(PID.TID 0000.0001) %MON forcing_qnet_min             =  -1.5358367919922E+02
(PID.TID 0000.0001) %MON forcing_qnet_mean            =   2.2638083051266E+00
(PID.TID 0000.0001) %MON forcing_qnet_sd              =   4.3251861816584E+01
(PID.TID 0000.0001) %MON forcing_qnet_del2            =   7.9754295620117E-01
(PID.TID 0000.0001) %MON forcing_qsw_max              =   0.0000000000000E+00
(PID.TID 0000.0001) %MON forcing_qsw_min              =   0.0000000000000E+00
(PID.TID 0000.0001) %MON forcing_qsw_mean             =   0.0000000000000E+00
(PID.TID 0000.0001) %MON forcing_qsw_sd               =   0.0000000000000E+00
(PID.TID 0000.0001) %MON forcing_qsw_del2             =   0.0000000000000E+00
(PID.TID 0000.0001) %MON forcing_empmr_max            =   6.6800717490878E-05
(PID.TID 0000.0001) %MON forcing_empmr_min            =  -8.3620723501099E-05
(PID.TID 0000.0001) %MON forcing_empmr_mean           =   1.2022297817123E-08
(PID.TID 0000.0001) %MON forcing_empmr_sd             =   2.5522928542606E-05
(PID.TID 0000.0001) %MON forcing_empmr_del2           =   3.7041876953226E-07
(PID.TID 0000.0001) %MON forcing_fu_max               =   3.4346117377281E-01
(PID.TID 0000.0001) %MON forcing_fu_min               =  -4.1095014810562E-01
(PID.TID 0000.0001) %MON forcing_fu_mean              =   1.7404118974000E-02
(PID.TID 0000.0001) %MON forcing_fu_sd                =   1.0186347478370E-01
(PID.TID 0000.0001) %MON forcing_fu_del2              =   8.0856311401579E-04
(PID.TID 0000.0001) %MON forcing_fv_max               =   1.8099631667137E-01
(PID.TID 0000.0001) %MON forcing_fv_min               =  -1.4571011960506E-01
(PID.TID 0000.0001) %MON forcing_fv_mean              =  -6.6541353030919E-03
(PID.TID 0000.0001) %MON forcing_fv_sd                =   3.9225413743387E-02
(PID.TID 0000.0001) %MON forcing_fv_del2              =   4.3233394206160E-04
(PID.TID 0000.0001) %MON trAdv_CFL_u_max              =   4.5528376195593E-02
(PID.TID 0000.0001) %MON trAdv_CFL_v_max              =   2.4652162445546E-02
(PID.TID 0000.0001) %MON trAdv_CFL_w_max              =   2.6630709681605E-02
(PID.TID 0000.0001) %MON advcfl_uvel_max              =   4.5066228686528E-02
(PID.TID 0000.0001) %MON advcfl_vvel_max              =   2.4701352856228E-02
(PID.TID 0000.0001) %MON advcfl_wvel_max              =   2.8941977440364E-02
(PID.TID 0000.0001) %MON advcfl_W_hf_max              =   3.1070064016862E-02
(PID.TID 0000.0001) %MON pe_b_mean                    =   4.8901553800358E-04
(PID.TID 0000.0001) %MON ke_max                       =   1.0435782539507E-02
(PID.TID 0000.0001) %MON ke_mean                      =   1.2020653463553E-04
(PID.TID 0000.0001) %MON ke_vol                       =   1.3226782436723E+18
(PID.TID 0000.0001) %MON vort_r_min                   =  -3.7873159953515E-07
(PID.TID 0000.0001) %MON vort_r_max                   =   3.5441709603961E-07
(PID.TID 0000.0001) %MON vort_a_mean                  =  -2.5274807119475E-05
(PID.TID 0000.0001) %MON vort_a_sd                    =   7.3604693404297E-05
(PID.TID 0000.0001) %MON vort_p_mean                  =  -3.1845655449229E-05
(PID.TID 0000.0001) %MON vort_p_sd                    =   1.3162505089948E-04
(PID.TID 0000.0001) %MON surfExpan_theta_mean         =   1.5772030806837E-07
(PID.TID 0000.0001) %MON surfExpan_salt_mean          =  -5.0068070007839E-09
(PID.TID 0000.0001) // =======================================================
(PID.TID 0000.0001) // End MONITOR dynamic field statistics
(PID.TID 0000.0001) // =======================================================
(PID.TID 0000.0001) // =======================================================
(PID.TID 0000.0001) // Field Current uVel   at iteration        100
(PID.TID 0000.0001) // CMIN =         -1.310371364810267E-01
(PID.TID 0000.0001) // CMAX =          1.359773649302102E-01
(PID.TID 0000.0001) // CINT =          9.889425978193958E-03
(PID.TID 0000.0001) // SYMBOLS (CMIN->CMAX): -abcdefghijklmnopqrstuvwxyz+
(PID.TID 0000.0001) //                  0.0: .
(PID.TID 0000.0001) // RANGE I (Lo:Hi:Step):(     1:    90:     1)
(PID.TID 0000.0001) // RANGE J (Lo:Hi:Step):(    40:     1:    -1)
(PID.TID 0000.0001) // RANGE K (Lo:Hi:Step):(   1:   1:   1)
(PID.TID 0000.0001) // =======================================================
(PID.TID 0000.0001) K =   1
(PID.TID 0000.0001)                I=10      I=20      I=30      I=40      I=50      I=60      I=70      I=80      I=90
(PID.TID 0000.0001) |--J--|123456789|123456789|123456789|123456789|123456789|123456789|123456789|123456789|123456789|
(PID.TID 0000.0001)     40 mmmmm..mmmmmmmmmmmm...................................................................mllm
(PID.TID 0000.0001)     39 mnnmmmmmmmnnnm....m......................................................mmm.........lkllm
(PID.TID 0000.0001)     38 nnoonnnnnnnnm............................................................mnmm.......llllmn
(PID.TID 0000.0001)     37 noo...................................................................m....lm....lmlm..nnn
(PID.TID 0000.0001)     36 oo..........................................mmm.....................mmmmmmllkl..klmmnnoooo
(PID.TID 0000.0001)     35 nn..................................mmm...mmlmmm....lmmn............mm.....mllmkknooooopon
(PID.TID 0000.0001)     34 ....................................mnm..mmnnnnn..mllmnnn...................oonnoppqqqon..
(PID.TID 0000.0001)     33 .....................................omlmnopppponnnnoooonnm..................qqpqrrqqpnll.
(PID.TID 0000.0001)     32 .....................................noopqqqqqppoooppppponm.................qrrpppponmlln.
(PID.TID 0000.0001)     31 .....................................pqrrrqqppppppppqppppon...............puvtsrqponmllm..
(PID.TID 0000.0001)     30 ....................................suuuttssrqqqrrrqqqqppnm.............prtuutsrrqponnnn..
(PID.TID 0000.0001)     29 ..................................quwwvvvuuutsrrrrqpppponmmm............sttrrqpoooonmmmm..
(PID.TID 0000.0001)     28 ................................qrttsrrrrqqpppponnnnnnmmlmlmm..........rsponmmmmmnnmmmmm..
(PID.TID 0000.0001)     27 ...............m...............susqonnnooonmmmmmmmnnonmmmmllll....nnn..qonnmmmmnnnnnnm....
(PID.TID 0000.0001)     26 ...............no............lnqqnlkklmnnnmlllkllllmmllkkkjijkmm..mmnnoommmmnmnmmmlkkj....
(PID.TID 0000.0001)     25 ...............ppn....nn....kijkliggfhiiihhhhhhhhhiihgggggghjkmmm....lkjhijjjiiijjiggi....
(PID.TID 0000.0001)     24 .............nrtrpl..opp....nm..nkhhggggghhhhiijjkjihhijkllmnnnnnnnm..mljjkllmmmmnnnnn....
(PID.TID 0000.0001)     23 .............qtsqom..nno....oo...kjjjjjkklllmnnooommmnprrrssrqpnnonnn.....nnpqoopqssrq....
(PID.TID 0000.0001)     22 o............llhggfgihil....m..ohhhhhhiiihggiiijkjijlmprsrrrqpomllllll.......niggimpqpqppp
(PID.TID 0000.0001)     21 pqo.........kiifeb-bdehlk......oikmkiiiiggfeffffgffgiikmnnmllnnonmmlkl.........fbbflmlosqr
(PID.TID 0000.0001)     20 mnm........mlmonljfhjkmon.........ponnlmllmlllkjjihhiiikkiihikmmmkjjjk..........idehihkmlm
(PID.TID 0000.0001)     19 jll........kjkmnlljkkklnnnm....il......onoppppnnmmlkkjkkjiiihhiiihhhij............iiihjjii
(PID.TID 0000.0001)     18 jkm........lgeggfihiigiklkiijigil....lmmmmmnmmlkklkjiiijiijjjijjjiiijjj...........lkkkkkii
(PID.TID 0000.0001)     17 jkk..........hfeedfgfgghjjjjjjk......llkkklkkkkjjjjjiihhhhhhhhiiiijjjjj..........nljiiihhi
(PID.TID 0000.0001)     16 efg.......p..njiffhhijiijlmmkl........lllmlkkllllllllkjihhhhhhhhhhhihhhk.........nljhgffff
(PID.TID 0000.0001)     15 gffj.....mn..nmlkklmmmllmnnmm..........lmnmllmnnnnnnnmlkkjjkjjjjjjiiigfhl.......lllkjihhhg
(PID.TID 0000.0001)     14 jiij.....lljkklllmmnmlllmmnmn..........mmmmnmnnnnoooonnmmmmmlllllkkkkkjjl......jkkkkkkjijj
(PID.TID 0000.0001)     13 llji.....mnmllllmmoonlmmmmmmn..........nnnooopooopppopppqqqppponnnnnnnmmm.....lnnnnmmnmmmm
(PID.TID 0000.0001)     12 pomkknolmprrqponnnoppoppponnnnnnnm.....opppoopooopppppqqrrsrssqpppppoonm......oqrrrrqrrrrq
(PID.TID 0000.0001)     11 rqpoommnquvvvvtrqqrqqqqqqpoppoooonn...nnoon..ooonnnnooooooppqqppppppoonm.....nprtttttsssrs
(PID.TID 0000.0001)     10 ssqqqrsstvxyyxxvvwwvtssssrrqqqqpponn..noonm..oommmmmnnnnmmnoooopppoooonn...nooqsttuuvutttt
(PID.TID 0000.0001)      9 wvvvuvvvuuvuuvwwuvxxwvvvvvvuttttssrqpppppo..pppoooooooppppppqqqqqqppooom..npqrsttuvwxxxxww
(PID.TID 0000.0001)      8 wxyyyxwwwvutuuutsqqtwxxxxxxxxwwxxyyyxxwvtsstssrssttuuuuuuvvuuttttssrrqpo..pqqrsstuvwwxyyxw
(PID.TID 0000.0001)      7 tuvvuutuuuutttsssrpqsttuuuuvvvwwxyz+++zzzyxvtttuuvwxyyyyxxxwwvvvvuuttttuttussssrrsstttuuut
(PID.TID 0000.0001)      6 qqqppqqrrssrqqqqrrrpooppqqqrsttuuvvvvvvwyzyxvuuuuvwwyyzzyxwvvvvvuuuuvvvvwxwxxvtrqqppppqqrq
(PID.TID 0000.0001)      5 nnmmmnnoooooonnnoooonnnnmmnnoppqqqqqqqrstuvvvuuuvvvvutttttttttttttttttuuutsssqpoonnnnnooon
(PID.TID 0000.0001)      4 llkkllllmmmmmmmmmnnnmmmlllllmmmmmnnnnonoooppqrrrrrqpponnopqqrqqqqqqqqqqppn...mmmmmmllmmlll
(PID.TID 0000.0001)      3 llllllllll.............................mmmmlmnnnnmmlllllmmnnnnnnnnnnnmnmm...mlllllllllllll
(PID.TID 0000.0001)      2 ...........................................llmmmmmllllllllmmmmmm...mmm......mmmmmmmmmmm...
(PID.TID 0000.0001)      1 ..........................................................................................
(PID.TID 0000.0001) // =======================================================
(PID.TID 0000.0001) // END OF FIELD                                          =
(PID.TID 0000.0001) // =======================================================
(PID.TID 0000.0001) 
(PID.TID 0000.0001) // =======================================================
(PID.TID 0000.0001) // Field Current vVel   at iteration        100
(PID.TID 0000.0001) // CMIN =         -8.790484492063246E-02
(PID.TID 0000.0001) // CMAX =          1.271404629135454E-01
(PID.TID 0000.0001) // CINT =          7.964641030895477E-03
(PID.TID 0000.0001) // SYMBOLS (CMIN->CMAX): -abcdefghijklmnopqrstuvwxyz+
(PID.TID 0000.0001) //                  0.0: .
(PID.TID 0000.0001) // RANGE I (Lo:Hi:Step):(     1:    90:     1)
(PID.TID 0000.0001) // RANGE J (Lo:Hi:Step):(    40:     1:    -1)
(PID.TID 0000.0001) // RANGE K (Lo:Hi:Step):(   1:   1:   1)
(PID.TID 0000.0001) // =======================================================
(PID.TID 0000.0001) K =   1
(PID.TID 0000.0001)                I=10      I=20      I=30      I=40      I=50      I=60      I=70      I=80      I=90
(PID.TID 0000.0001) |--J--|123456789|123456789|123456789|123456789|123456789|123456789|123456789|123456789|123456789|
(PID.TID 0000.0001)     40 jkoom.jklllllk...kk..................................................................jjjjj
(PID.TID 0000.0001)     39 kklmlkkllllll...........................................................jkll........hiijkk
(PID.TID 0000.0001)     38 kmm.......................................................................kkj......jh.llkk
(PID.TID 0000.0001)     37 ln...................................................................kk...kkj...gjnmj.lljj
(PID.TID 0000.0001)     36 ll.........................................lmml....................kkk....jjjj.ffkmllkjllk
(PID.TID 0000.0001)     35 ...................................kkkl..klklllk...hilmm...................hiiiikmmlllno..
(PID.TID 0000.0001)     34 ....................................kjk.jjiijjjj.ihiiklml...................hgikmooonmnn..
(PID.TID 0000.0001)     33 ....................................khhijjihiiihhgghhijjkkk.................keimnooomlknm.
(PID.TID 0000.0001)     32 ....................................liiijkjjiiggggffgghhhij................rleiklkkkjjjl..
(PID.TID 0000.0001)     31 ....................................njhhiiiiihgfffeeffghghi..............lljhghghhggghjk..
(PID.TID 0000.0001)     30 ...................................onjhhijihhiihhhhhiiiihfg............oqkkihhgffffgghik..
(PID.TID 0000.0001)     29 .................................ooonkjklmlklmnmmllmnmlljhgh...........pqlkjiiiiihhhhikk..
(PID.TID 0000.0001)     28 ...............................ppponmllmnonmmnonoonnonmlkjjii.........momkkkkjjjkjiiij....
(PID.TID 0000.0001)     27 ..............kj..............sqonnnnnnnoommnnnoppoooonnmmlkjj...llmm.mlkjjjjjjlmlllkj....
(PID.TID 0000.0001)     26 ..............kll...........jlpronnnopqrqpppqqqrrqppqqqponmmkjjk....omllmljklmnoonmmki....
(PID.TID 0000.0001)     25 ..............llmm...mmk...hhl.pkkmopqsrqqppqqrrrqpnnnnmmmllllkkj....llmnkjjjkkllkiiij....
(PID.TID 0000.0001)     24 ............mpqrqoo.npok...jjk..ggmppqrqqpoooppppppmllkjkllmmmlkijjl.....kjkjjlnnmlllk....
(PID.TID 0000.0001)     23 ............vyxxtqp.npok...nn...ehostttssstttuuuvwvtsssstttsrqpnmmnmk.......orvxyxwtpj....
(PID.TID 0000.0001)     22 j...........wyyuqmlijnpn......jfgntwyzzwutttuutttttsrrrrssrrqonmlmnljh........swy+zvsoljjj
(PID.TID 0000.0001)     21 jkl........noqpljhhggijje......c.moqtuvsponnnmmmmmmlkkllkkkjihgghikkih.........oqvtqnkjjii
(PID.TID 0000.0001)     20 gkl.......nnomjgghghijigd......-......rrpppooooonkiiiihhgfedccbcddefgg...........snigeddde
(PID.TID 0000.0001)     19 hik.......pputponlklnnmlknn...hil.....qrqrrssssrpmklmllkjhhhgfedcbcegj...........pojgeddeg
(PID.TID 0000.0001)     18 kkk.......o.vwqolmklmkkkkjjiihf.....kklkklnonmllllkklmmmlkllllljhghilml..........oqnmlkjkl
(PID.TID 0000.0001)     17 mmm.......n.mpjhihgfefggffeffh.......jhffgiiihgghiiijjkjjjlllkkjiijlnnk.........jkmlmmlklm
(PID.TID 0000.0001)     16 iik......jm.kjiihfhheeghggfdf.........heeghhiiiiiiijjkkjjjkkkkkjhhijlmkj........jllkklkjji
(PID.TID 0000.0001)     15 jjkj....jjm.iijiihjljhikkkieg.........hfghhhjkkkjjkkklkjjklkkllkjijjjklkk......gilmllmlllj
(PID.TID 0000.0001)     14 lmnl....gilheghgfgikkiilnmlih.........gfghhhhjkjiiiihiiiiijjkmkjjjkkkkmnk.....degijiijkllk
(PID.TID 0000.0001)     13 mmnn....dhkhfgiiiijkihjmonmmk.........gfhiihhijjiihhhhhhhhijkljkllklmmnm.....hdhijjiijklmm
(PID.TID 0000.0001)     12 poonpljhgknnklnnnmnonmnpqqppnllkkl....iikki.jjkklkjjjjkkkklmmlkmoonmnnnl.....iikkmnmmnnopq
(PID.TID 0000.0001)     11 qpppnlllmoqqomnopppqqqrrrrrqpnnnmnm..jjkkkj.kllkmlllllmnnnnnmllnqqponnnk....klnonmnnnopqrr
(PID.TID 0000.0001)     10 ooopomllostspnmnqpnmopqqqppponmlllmo.jjlki..onkjllmlmmlmnoonmllnppponnmj..lomoqponmmllnpqp
(PID.TID 0000.0001)      9 mmnppnlknqrrqpnmswokmopppoonnmkkkjlonlkllk.qqolllmmmmmmmmnonlllnpoonnmig.mopprsqonnnllnqqo
(PID.TID 0000.0001)      8 oooonmmmnoqrrpnmpxwpoooppoonmmlkkkmpoljjlnsuqpooooonnonoonnnmmmnoooonmhg.qqruvuspoonmnoprr
(PID.TID 0000.0001)      7 qpommmnnnopqponmmqvtqonoonmmmmnmmmopolkjlorssrqqqqqqponnnmmnnnnooooonnmmprrtvvtsqppnnnppqr
(PID.TID 0000.0001)      6 onmlmmmnnnnnnmlllnoponnmllkllmmmmmnonmmmmnoopqqrrrrsromllklnnonnopoonnopqrrsrpppnnonmnoooo
(PID.TID 0000.0001)      5 lkkkkkkllkjjjjjjkkkkkkjhhiiijjjijjjklllllmmllnpqqqqqpnlkkkkmnnmmnnnnmmnnmm..mkmmmlmlllmlll
(PID.TID 0000.0001)      4 hgghhhgggh............................jijkkjklmnnnmmlkkkkkkllllkkllllkjkj...lkkkkkkkkjjiih
(PID.TID 0000.0001)      3 ..........................................kkjjjkkkjjjjjjjjjiiiij..kkjj.....kllkjjjjjjii...
(PID.TID 0000.0001)      2 ..........................................................................................
(PID.TID 0000.0001)      1 ..........................................................................................
(PID.TID 0000.0001) // =======================================================
(PID.TID 0000.0001) // END OF FIELD                                          =
(PID.TID 0000.0001) // =======================================================
(PID.TID 0000.0001) 
(PID.TID 0000.0001) // =======================================================
(PID.TID 0000.0001) // Field Current theta  at iteration        100
(PID.TID 0000.0001) // CMIN =         -1.922705440494660E+00
(PID.TID 0000.0001) // CMAX =          3.132921242105006E+01
(PID.TID 0000.0001) // CINT =          1.231552513390545E+00
(PID.TID 0000.0001) // SYMBOLS (CMIN->CMAX): -abcdefghijklmnopqrstuvwxyz+
(PID.TID 0000.0001) //                  0.0: .
(PID.TID 0000.0001) // RANGE I (Lo:Hi:Step):(     1:    90:     1)
(PID.TID 0000.0001) // RANGE J (Lo:Hi:Step):(    40:     1:    -1)
(PID.TID 0000.0001) // RANGE K (Lo:Hi:Step):(   1:   1:   1)
(PID.TID 0000.0001) // =======================================================
(PID.TID 0000.0001) K =   1
(PID.TID 0000.0001)                I=10      I=20      I=30      I=40      I=50      I=60      I=70      I=80      I=90
(PID.TID 0000.0001) |--J--|123456789|123456789|123456789|123456789|123456789|123456789|123456789|123456789|123456789|
(PID.TID 0000.0001)     40 -abccb--------abcddbbbbbbbbbbbbbbbbbbbbbbbbbbbbbbbbbbbbbbbbbbbbbbbbbbbbbbbbbbbbbbbbbbaa---
(PID.TID 0000.0001)     39 bbccccbaa-----bbbddbbbbbbbbbbbbbbbbbbbbbbbbbbbbbbbbbbbbbbbbbbbbbbbbbbbbb----bbbbbbbbaaaaaa
(PID.TID 0000.0001)     38 deeeeecbcbaa-bbbbbbbbbbbbbbbbbbbbbbbbbbbbbbbbbbbbbbbbbbbbbbbbbbbbbbbbbbb-----bbbbbba--abcc
(PID.TID 0000.0001)     37 ffgbbbbbbbbbbbbbbbbbbbbbbbbbbbbbbbbbbbbbbbbbbbbbbbbbbbbbbbbbbbbbbbbbbbbbbb--abbbbbeeebcdde
(PID.TID 0000.0001)     36 ggbbbbbbbbbbbbbbbbbbbbbbbbbbbbbbbbbbbbbbbbbba--bbbbbbbbbbbbbbbbbbbbccbbbaaaaacbcefgghhhggg
(PID.TID 0000.0001)     35 ffbbbbbbbbbbbbbbbbbbbbbbbbbbbbbbbbb----bbabcccb-bbbddeefbbbbbbbbbbbbbbbbbbbcddddeffhhiiihg
(PID.TID 0000.0001)     34 bbbbbbbbbbbbbbbbbbbbbbbbbbbbbbbbbbb----bacccccccbccedefffbbbbbbbbbbbbbbbbbbcabdefgghiiiibb
(PID.TID 0000.0001)     33 bbbbbbbbbbbbbbbbbbbbbbbbbbbbbbbbbbbb--abbccdddddeeeeefffgghbbbbbbbbbbbbbbbbbbabfhijjjjjjjb
(PID.TID 0000.0001)     32 bbbbbbbbbbbbbbbbbbbbbbbbbbbbbbbbbbbbaabbccddddeefffgggghhhibbbbbbbbbbbbbbbbfeb-hjklllkkkjb
(PID.TID 0000.0001)     31 bbbbbbbbbbbbbbbbbbbbbbbbbbbbbbbbbbbbeeefgggghhhhhhhhiijjjjjbbbbbbbbbbbbbbhillgilmmmmmllmbb
(PID.TID 0000.0001)     30 bbbbbbbbbbbbbbbbbbbbbbbbbbbbbbbbbbbkkjjjjkkkkkkkkkkkllmmmllbbbbbbbbbbbbmmmnooooooooonnnnbb
(PID.TID 0000.0001)     29 bbbbbbbbbbbbbbbbbbbbbbbbbbbbbbbbbnnnnnmmmnnnnnnnnnnnnooonmmmbbbbbbbbbbbnpqqppppppppooooobb
(PID.TID 0000.0001)     28 bbbbbbbbbbbbbbbbbbbbbbbbbbbbbbbmooppppoopppppppppqppqqqpponnnbbbbbbbbbqrrrqqrqqqqqppppppbb
(PID.TID 0000.0001)     27 bbbbbbbbbbbbbbtubbbbbbbbbbbbbbqqrrrrrrrrrssrrssrsssrrrrqqppoopbbbrrrsbstttsstssssrrrqqbbbb
(PID.TID 0000.0001)     26 bbbbbbbbbbbbbbuutbbbbbbbbbbbtstttttuuuuuuuutttttttttsssrrqqppqsubttuvuuuuuuuutttssrrqqbbbb
(PID.TID 0000.0001)     25 bbbbbbbbbbbbbbuvvvbbbwwwbbbuuvvvvvvwwwwvvvvvuuuuuuuutttssrrrrstvwbbbvvvvvuuuuuuttsrqqqbbbb
(PID.TID 0000.0001)     24 bbbbbbbbbbbbwvvwxxybwwxxbbbwwwbwwwwwwwwwwwvvvvvvvvuuvvvvvvvvvvvwwvwwbwvvvuuuuuuuttttttbbbb
(PID.TID 0000.0001)     23 bbbbbbbbbbbbwwxxyyzbwxyybbbxwwbbwxxxxxxxxwwwwwwwwwwwwwwwwwwxxwwwwwwxwbbbbvvvvvvvvvvwwwbbbb
(PID.TID 0000.0001)     22 vbbbbbbbbbbbwwwxxyyxxxyzbbbxxbzyxxyyyyyyyyxxxxxxxxxxxxxwwwwwwwwwwwwvvvbbbbbbwwwwwxxxxyyyxw
(PID.TID 0000.0001)     21 vvwbbbbbbbbxxxxxxxxxxyzzzbbbbbzyzzzzzzzzzzzyyyyyyyyyyyxxxxxxxxxxxxwvvvbbbbbbbbxxxxxyyyyyxw
(PID.TID 0000.0001)     20 vwvbbbbbbbyyyyyxyyyyyzzz+bbbbbbzbzzzzz+zz++zzzzzzzzyyyyxxxxxxxxxxxwwwvbbbbbbbbbyyyxxxxxwww
(PID.TID 0000.0001)     19 vvwbbbbbbbzzzyyyyzyzzzzyzzybbbzzzbbbbbz+zz++zzzzzzzzyyyxxxxxwwwvvwvvvvbbbbbbbbbbbxxwwwwvvv
(PID.TID 0000.0001)     18 uuubbbbbbbzyxxxyxyyyyyyyzyzzzz+zzbbb++zzzzzzzzzzzzzyyyyxxxxxwwwvvvvuuutbbbbbbbbbbyxxwwvvwv
(PID.TID 0000.0001)     17 uutbbbbbbbzbywwxxwwxxxxxyyyyyzzbbbbbyyyyyzzzzzzyyyyyyxxxxxxwwwvvuvvuttvbbbbbbbbbxxxxwvuvvv
(PID.TID 0000.0001)     16 tssbbbbbbyzbxxwwwwwwwwwwwwxxyybbbbbbbxxxyyyyyyyyyyyyyxxxwxxxwwwvvvvuttstbbbbbbbbxxxxxwvvut
(PID.TID 0000.0001)     15 srrrbbbbwxxbvwwwwvvvvvvvuuvvwbbbbbbbbbvwwwwxxwxxxxxxxxxxxxxxwwvvvvuutsssrbbbbbbwxxxxxwwvut
(PID.TID 0000.0001)     14 tsqqbbbbvwvvvwvvvvvvututtsttubbbbbbbbbuvvvwwvvvwwwwwwwwwwwwwwwvvvvuutrssrbbbbbvwwwwwxwwwvu
(PID.TID 0000.0001)     13 ttspbbbbvwvvvvuuuvvuuuttsssrsbbbbbbbbbtuuuuvuuuuuuuuvvvvvvwwwvvuuuuutsrspbbbbuvwwvvvwwvvuu
(PID.TID 0000.0001)     12 sssrssqrtutttutssssssttrrrrrqppqrqbbbbstttttttsssssststsstuuutttssssssrrbbbbbtuvvuttuutsss
(PID.TID 0000.0001)     11 ppooppqrrrrqqrrqqppopqqppppooppqqpqbbrrssrsbqrqqqrrrrrrrqrrrqqqqqqqrrrqpbbbboprssrrrrrrqqp
(PID.TID 0000.0001)     10 mmlklmnoooooooommlmmmmmllllllmnnoooobpqqqqqbopqpqqpppppppppoooooonnooooobbnpooooooonnooonm
(PID.TID 0000.0001)      9 ijiiiijjjjijkkjjjiijjjiiihiiiijkkmmmlmnnopbnmnnoooonnnonnnmlllmmlllllmmlblmmmmlllllkkklkji
(PID.TID 0000.0001)      8 fffgggghhggghiiihgghhhhgggghhhhiijjjjjklllmlkllllkkllllkkkkjjjjjjjjjjjlkbjkkjjjiiihhhhhggf
(PID.TID 0000.0001)      7 eedeeefffgfffggggfefffeeeefggggggghgghhijjjiiijjkjiiihiihhiiihhhhhhhiiijiiiihhhggfffffeeee
(PID.TID 0000.0001)      6 cccddeeeeeeeeeeeeeeeeeeeeeeedddeeeeeffggghgghgghhhhgfffffggffffffgggggggggggggffeedddddddc
(PID.TID 0000.0001)      5 ccdddddddddddddddddddddddcdddddeeeedddeeeeefffeeeeedddeeeeeedddeeeeeeeeeeeeddeddddcccccccc
(PID.TID 0000.0001)      4 ccccccccccccccbbbbccccbbbbbbcccccbbbbcccccccccccccccccccccccccccccccccccdcbbbaabbbcccccccc
(PID.TID 0000.0001)      3 cccbbbaaaabbbbbbbbbbbbbbbbbbbbbbbbbbbbbbaaaabbbbbbbbbbbbbaaaaaaaaaaaabbbbbbbaaaaabbbbbbbbb
(PID.TID 0000.0001)      2 bbbbbbbbbbbbbbbbbbbbbbbbbbbbbbbbbbbbbbbbbbaaaabbbbbbaaaaaaaaaaaabbaaaabbbbbaaaaaaaabbbabbb
(PID.TID 0000.0001)      1 bbbbbbbbbbbbbbbbbbbbbbbbbbbbbbbbbbbbbbbbbbbbbbbbbbbbbbbbbbbbbbbbbbbbbbbbbbbbbbbbbbbbbbbbbb
(PID.TID 0000.0001) // =======================================================
(PID.TID 0000.0001) // END OF FIELD                                          =
(PID.TID 0000.0001) // =======================================================
(PID.TID 0000.0001) 
(PID.TID 0000.0001) // =======================================================
(PID.TID 0000.0001) // Field Current etaN   at iteration        100
(PID.TID 0000.0001) // CMIN =         -1.820438374713960E+00
(PID.TID 0000.0001) // CMAX =          8.384341059186262E-01
(PID.TID 0000.0001) // CINT =          9.847675854194764E-02
(PID.TID 0000.0001) // SYMBOLS (CMIN->CMAX): -abcdefghijklmnopqrstuvwxyz+
(PID.TID 0000.0001) //                  0.0: .
(PID.TID 0000.0001) // RANGE I (Lo:Hi:Step):(    -1:    92:     1)
(PID.TID 0000.0001) // RANGE J (Lo:Hi:Step):(    42:    -1:    -1)
(PID.TID 0000.0001) // RANGE K (Lo:Hi:Step):(   1:   1:   1)
(PID.TID 0000.0001) // =======================================================
(PID.TID 0000.0001) K =   1
(PID.TID 0000.0001)                I=8       I=18      I=28      I=38      I=48      I=58      I=68      I=78      I=88
(PID.TID 0000.0001) |--J--|101234567|901234567|901234567|901234567|901234567|901234567|901234567|901234567|901234567|9012
(PID.TID 0000.0001)     42 ............................................-----aaaabbbbbbbbbbbbb..cbbb.....abaaaabbbbaa.....
(PID.TID 0000.0001)     41 ..............................................................................................
(PID.TID 0000.0001)     40 lllllmm.mmmmnnnnnnnnn..................................................................lmmllll
(PID.TID 0000.0001)     39 llllllmmmmmmmnnn...nn.....................................................kkkk........mmmlllll
(PID.TID 0000.0001)     38 lmmmmnnmmmnnnno...........................................................kkkll......nlllllmmm
(PID.TID 0000.0001)     37 mmmno..................................................................ll...mll...nnlnm.lmmmmn
(PID.TID 0000.0001)     36 mnnp.........................................qqqq....................lllmmlkkklk.olklmmnmmmnnp
(PID.TID 0000.0001)     35 oppo.................................ooon..pppppqq...trrrs...........mmm....ljjjjjjkkllmmnoppo
(PID.TID 0000.0001)     34 .....................................onno.pppppppq.qqqqqqrs..................kkjjjjklmmnnq....
(PID.TID 0000.0001)     33 o.....................................oooooopppppqqqqqqqqrrst.................mkkkklmnooono...
(PID.TID 0000.0001)     32 p.....................................qpoooppppqqqqrrqrrrrrrs................iomlmnoopppoop...
(PID.TID 0000.0001)     31 ......................................pppppqqrrrrrrssssssttst..............oooooooppppppoo....
(PID.TID 0000.0001)     30 .....................................qrrrrrssssstttttttttuuts............mppqrrrrrrrqqqppq....
(PID.TID 0000.0001)     29 ...................................sttvvvuuvvvuuuvvvuuuuuuuuts...........orsttttsssrrqqqpq....
(PID.TID 0000.0001)     28 .................................tuvwxxxxxxxxwwwwwwvvvvvvuuuuts.........rsttttttssssrqqqqp....
(PID.TID 0000.0001)     27 ................tt..............vwxyyyyyyyyyxxxxwwwwwwvvvvuuutts...vuuu.tuuuuttsssrrrqqp......
(PID.TID 0000.0001)     26 ................ttt...........zyyzzyzzzzzzzzyyyxxxxxxwwwvvuuuttttt.vvuvvvvvvuuutssrrrqqp......
(PID.TID 0000.0001)     25 ................tttu...vvw...zyyxzzzzzzzzzzzzyyxxxxxxwwwvvvuuuuuuuu...vvvvvvuuttsssrrqqq......
(PID.TID 0000.0001)     24 ..............uuuuuvv.wvww...zzy.+zyyyyyyyyyyyyxxxxwwwwwwvvvvvvvvvuuuu.vuuvuuuuttsssrrrr......
(PID.TID 0000.0001)     23 ..............uuuvvvv.wvww...zzy..zyyyyyyyyyyyyxxxxxxwwwwvvvvvvvvvuuuuu....uuuuttttsssst......
(PID.TID 0000.0001)     22 tss...........uuuuuuvvvvvv...zz.+yyyyyyyyyyxxxxxxxxxxxwwwwvvvvvvuuuuuuuu......uttttttttttttss.
(PID.TID 0000.0001)     21 sssss........vvuuttuuuuuuvw.....zyyyyyyyxxxxxxxwwwwwwwwwwwvvvvvuuuuuuuut........utttttttttssss
(PID.TID 0000.0001)     20 srrss.......wwvvuttuuuuuuvv......y.yyxxxxwxxxxxxxxwwwwwvvvvvuuuuuttutttt.........utttssssssrrs
(PID.TID 0000.0001)     19 rrrrs.......wwvuuuuuuuvvvvvvv...xxy.....yxxxyyyxxxxxxwwwwvvvvuuutttttttt...........utssssrrrrr
(PID.TID 0000.0001)     18 rrrrr.......xwwvuuuvvvvvvwvvvvwwxyy...zzyyyyyyyyyyyxxxxwwwwvvvuuuutttttts..........uttssrrrrrr
(PID.TID 0000.0001)     17 rrrrr.......x.ywvvvvvwwvvvvvvvwwx.....yyxxyyyyyyyyyxxxxwwwwwvvvvuuuuutttt.........vvuttsrrrrrr
(PID.TID 0000.0001)     16 srrrq......yy.xwwwwwwvvwvvvvvvvw.......xxxxxyyyyxyyxxxxxxxwwwwwvvuuuuuttst........uuuuttsssrrr
(PID.TID 0000.0001)     15 tsrrqq....wxx.wwwxxwwwvvvvvutuv.........wxxxxxyxxxxxxyyxxxxxxxwwwvvvuuutssr......tuvvvvuuttsrr
(PID.TID 0000.0001)     14 ttssrp....wxwvwwwwwwwvuuvuutsst.........vwwwxxxwwwwxxxxxxxxxxxxwwvvvvuuttss.....tuuvvvvvvuttss
(PID.TID 0000.0001)     13 uutsrq....vxwwwwvvvvvuuuvuttsrr.........uwwwvwwvvvvvvvvwwwwwxxxxwwvvvuuttss....qtuuvvvvvvvuuts
(PID.TID 0000.0001)     12 uutssrroqrvxwvvvvvvuuuuuuuttssrrrrrr....tvvuuuuuuuuuuuuvvvvvvvwvwwvuuuutts.....rttuuuvvvvuuuts
(PID.TID 0000.0001)     11 tsssrrrrstuvvuuuuuuuuutttttssrrrrssss..sttttt.tttttttuuuuuuuuuuvvwvuttttsr....pqrsstttuutttsss
(PID.TID 0000.0001)     10 qqppppoppqqqqpppqrrqqrrrrrrrqqqqqrrrrs.rstttt.sssttttuuuuuuutttuuvutsrrrrs..tqqqpooppqqrrrqqpp
(PID.TID 0000.0001)      9 mlmmmmlllmnmlkkkklljklmnnnnnnnnoopqrsrrrrrrs.usrrsttttttuuuutsstttsrrqqqqp.ppponmllllllnnnmlmm
(PID.TID 0000.0001)      8 hgghhhggghiiiihhhikhfghiiiiijjkklmnnppppqrsstqqqqqrrrsssssrsrrrrrrrqppppqs.qpnmljhhhhhhhiihggh
(PID.TID 0000.0001)      7 edccbccdeeeffeeeefgifddddeeeeffghhijjjijkmopponnnnonnnooooonnnnnnnnnnnnoopqonnljhgedddddddedcc
(PID.TID 0000.0001)      6 baa--aabbbcccccccddedcbbcbbccddddeeeeeeefhijkkkkkkkkjiihhiiijjjjjkkkjjkkkkkkjigfdcccbbbbbbbaa-
(PID.TID 0000.0001)      5 ------aaaaaaabbbbbccbbbaaaaaaaaaabbbbbccccddefgggffeedbbbcceffffffffffffffedcb-aaaaaaaaaaa----
(PID.TID 0000.0001)      4 -----aaaaaabbbbbbbbaaaaaaabaaaaaaaaaaaaaaaaaabbbbbaaa--aaabbccccccddcccccccd..-aaaaaaaa-------
(PID.TID 0000.0001)      3 aaabbbbbbbbb............................-aaa--aaaaa----aaaaaaabbbbbbbbbbccc..bbaaaaaaaaaaaaaab
(PID.TID 0000.0001)      2 ............................................-----aaaabbbbbbbbbbbbb..cbbb.....abaaaabbbbaa.....
(PID.TID 0000.0001)      1 ..............................................................................................
(PID.TID 0000.0001)      0 lllllmm.mmmmnnnnnnnnn..................................................................lmmllll
(PID.TID 0000.0001)     -1 llllllmmmmmmmnnn...nn.....................................................kkkk........mmmlllll
(PID.TID 0000.0001) // =======================================================
(PID.TID 0000.0001) // END OF FIELD                                          =
(PID.TID 0000.0001) // =======================================================
(PID.TID 0000.0001) 
(PID.TID 0000.0001)  MDS_WRITE_FIELD: it,rec,kS,kL,kH=     100     1  15   1  15 file=U.0000000100
(PID.TID 0000.0001)  MDS_WRITE_FIELD: it,rec,kS,kL,kH=     100     1  15   1  15 file=V.0000000100
(PID.TID 0000.0001)  MDS_WRITE_FIELD: it,rec,kS,kL,kH=     100     1  15   1  15 file=T.0000000100
(PID.TID 0000.0001)  MDS_WRITE_FIELD: it,rec,kS,kL,kH=     100     1  15   1  15 file=S.0000000100
(PID.TID 0000.0001)  MDS_WRITE_FIELD: it,rec,kS,kL,kH=     100     1   1   1   1 file=Eta.0000000100
(PID.TID 0000.0001)  MDS_WRITE_FIELD: it,rec,kS,kL,kH=     100     1  15   1  15 file=W.0000000100
(PID.TID 0000.0001)  MDS_WRITE_FIELD: it,rec,kS,kL,kH=     100     1  15   1  15 file=PH.0000000100
(PID.TID 0000.0001)  MDS_WRITE_FIELD: it,rec,kS,kL,kH=     100     1   1   1   1 file=PHL.0000000100
(PID.TID 0000.0001)  MDS_WRITE_FIELD: it,rec,kS,kL,kH=     100     1   1   1   1 file=ETAtave.0000000100
(PID.TID 0000.0001)  MDS_WRITE_FIELD: it,rec,kS,kL,kH=     100     1  15   1  15 file=Ttave.0000000100
(PID.TID 0000.0001)  MDS_WRITE_FIELD: it,rec,kS,kL,kH=     100     1  15   1  15 file=Stave.0000000100
(PID.TID 0000.0001)  MDS_WRITE_FIELD: it,rec,kS,kL,kH=     100     1  15   1  15 file=uVeltave.0000000100
(PID.TID 0000.0001)  MDS_WRITE_FIELD: it,rec,kS,kL,kH=     100     1  15   1  15 file=vVeltave.0000000100
(PID.TID 0000.0001)  MDS_WRITE_FIELD: it,rec,kS,kL,kH=     100     1  15   1  15 file=wVeltave.0000000100
(PID.TID 0000.0001)  MDS_WRITE_FIELD: it,rec,kS,kL,kH=     100     1   1   1   1 file=Eta2tave.0000000100
(PID.TID 0000.0001)  MDS_WRITE_FIELD: it,rec,kS,kL,kH=     100     1  15   1  15 file=UTtave.0000000100
(PID.TID 0000.0001)  MDS_WRITE_FIELD: it,rec,kS,kL,kH=     100     1  15   1  15 file=VTtave.0000000100
(PID.TID 0000.0001)  MDS_WRITE_FIELD: it,rec,kS,kL,kH=     100     1  15   1  15 file=WTtave.0000000100
(PID.TID 0000.0001)  MDS_WRITE_FIELD: it,rec,kS,kL,kH=     100     1  15   1  15 file=UStave.0000000100
(PID.TID 0000.0001)  MDS_WRITE_FIELD: it,rec,kS,kL,kH=     100     1  15   1  15 file=VStave.0000000100
(PID.TID 0000.0001)  MDS_WRITE_FIELD: it,rec,kS,kL,kH=     100     1  15   1  15 file=WStave.0000000100
(PID.TID 0000.0001)  MDS_WRITE_FIELD: it,rec,kS,kL,kH=     100     1  15   1  15 file=TTtave.0000000100
(PID.TID 0000.0001)  MDS_WRITE_FIELD: it,rec,kS,kL,kH=     100     1  15   1  15 file=UUtave.0000000100
(PID.TID 0000.0001)  MDS_WRITE_FIELD: it,rec,kS,kL,kH=     100     1  15   1  15 file=VVtave.0000000100
(PID.TID 0000.0001)  MDS_WRITE_FIELD: it,rec,kS,kL,kH=     100     1  15   1  15 file=UVtave.0000000100
(PID.TID 0000.0001)  MDS_WRITE_FIELD: it,rec,kS,kL,kH=     100     1  15   1  15 file=Tdiftave.0000000100
(PID.TID 0000.0001)  MDS_WRITE_FIELD: it,rec,kS,kL,kH=     100     1  15   1  15 file=PhHytave.0000000100
(PID.TID 0000.0001)  MDS_WRITE_FIELD: it,rec,kS,kL,kH=     100     1   1   1   1 file=PHLtave.0000000100
(PID.TID 0000.0001)  MDS_WRITE_FIELD: it,rec,kS,kL,kH=     100     1   1   1   1 file=uFluxtave.0000000100
(PID.TID 0000.0001)  MDS_WRITE_FIELD: it,rec,kS,kL,kH=     100     1   1   1   1 file=vFluxtave.0000000100
(PID.TID 0000.0001)  MDS_WRITE_FIELD: it,rec,kS,kL,kH=     100     1   1   1   1 file=tFluxtave.0000000100
(PID.TID 0000.0001)  MDS_WRITE_FIELD: it,rec,kS,kL,kH=     100     1   1   1   1 file=sFluxtave.0000000100
(PID.TID 0000.0001)  MDS_WRITE_FIELD: it,rec,kS,kL,kH=     100     1   1   1   1 file=PHL2tave.0000000100
(PID.TID 0000.0001)  MDS_WRITE_FIELD: it,rec,kS,kL,kH=     100     1  15   1  15 file=Convtave.0000000100
(PID.TID 0000.0001) // Time-average data written, t-step       100
(PID.TID 0000.0001) 
(PID.TID 0000.0001)  MDS_WRITE_FIELD: it,rec,kS,kL,kH=     100     1  15   1  15 file=GM_Kwx-T.0000000100
(PID.TID 0000.0001)  MDS_WRITE_FIELD: it,rec,kS,kL,kH=     100     1  15   1  15 file=GM_Kwy-T.0000000100
(PID.TID 0000.0001)  MDS_WRITE_FIELD: it,rec,kS,kL,kH=     100     1  15   1  15 file=GM_Kwz-T.0000000100
(PID.TID 0000.0001)  MDS_WRITE_FIELD: it,rec,kS,kL,kH=     100     1  15   1  15 file=pickup_cd.0000000100
(PID.TID 0000.0001)  MDS_WRITE_FIELD: it,rec,kS,kL,kH=     100     2  15   1  15 file=pickup_cd.0000000100
(PID.TID 0000.0001)  MDS_WRITE_FIELD: it,rec,kS,kL,kH=     100     3  15   1  15 file=pickup_cd.0000000100
(PID.TID 0000.0001)  MDS_WRITE_FIELD: it,rec,kS,kL,kH=     100     4  15   1  15 file=pickup_cd.0000000100
(PID.TID 0000.0001)  MDS_WRITE_FIELD: it,rec,kS,kL,kH=     100    61   1   1   1 file=pickup_cd.0000000100
(PID.TID 0000.0001)  MDS_WRITE_FIELD: it,rec,kS,kL,kH=     100    -1  15   1  15 file=pickup.0000000100
(PID.TID 0000.0001)  MDS_WRITE_FIELD: it,rec,kS,kL,kH=     100    -2  15   1  15 file=pickup.0000000100
(PID.TID 0000.0001)  MDS_WRITE_FIELD: it,rec,kS,kL,kH=     100    -3  15   1  15 file=pickup.0000000100
(PID.TID 0000.0001)  MDS_WRITE_FIELD: it,rec,kS,kL,kH=     100    -4  15   1  15 file=pickup.0000000100
(PID.TID 0000.0001)  MDS_WRITE_FIELD: it,rec,kS,kL,kH=     100    -5  15   1  15 file=pickup.0000000100
(PID.TID 0000.0001)  MDS_WRITE_FIELD: it,rec,kS,kL,kH=     100    -6  15   1  15 file=pickup.0000000100
(PID.TID 0000.0001)  MDS_WRITE_FIELD: it,rec,kS,kL,kH=     100    -7  15   1  15 file=pickup.0000000100
(PID.TID 0000.0001)  MDS_WRITE_FIELD: it,rec,kS,kL,kH=     100    -8  15   1  15 file=pickup.0000000100
(PID.TID 0000.0001)  MDS_WRITE_FIELD: it,rec,kS,kL,kH=     100  -121   1   1   1 file=pickup.0000000100
(PID.TID 0000.0001)  MDS_WRITE_FIELD: it,rec,kS,kL,kH=     100  -122   1   1   1 file=pickup.0000000100
(PID.TID 0000.0001)  MDS_WRITE_FIELD: it,rec,kS,kL,kH=     100  -123   1   1   1 file=pickup.0000000100
(PID.TID 0000.0001) %CHECKPOINT       100 0000000100
(PID.TID 0000.0001)   Seconds in section "ALL                    [THE_MODEL_MAIN]":
(PID.TID 0000.0001)           User time:   31.0111361090094
(PID.TID 0000.0001)         System time:  0.000000000000000E+000
(PID.TID 0000.0001)     Wall clock time:   31.7554700374603
(PID.TID 0000.0001)          No. starts:           1
(PID.TID 0000.0001)           No. stops:           1
(PID.TID 0000.0001)   Seconds in section "INITIALISE_FIXED       [THE_MODEL_MAIN]":
(PID.TID 0000.0001)           User time:  6.970001384615898E-003
(PID.TID 0000.0001)         System time:  0.000000000000000E+000
(PID.TID 0000.0001)     Wall clock time:  4.596590995788574E-002
(PID.TID 0000.0001)          No. starts:           1
(PID.TID 0000.0001)           No. stops:           1
(PID.TID 0000.0001)   Seconds in section "THE_MAIN_LOOP          [THE_MODEL_MAIN]":
(PID.TID 0000.0001)           User time:   31.0041523873806
(PID.TID 0000.0001)         System time:  0.000000000000000E+000
(PID.TID 0000.0001)     Wall clock time:   31.7094860076904
(PID.TID 0000.0001)          No. starts:           1
(PID.TID 0000.0001)           No. stops:           1
(PID.TID 0000.0001)   Seconds in section "INITIALISE_VARIA    [THE_MAIN_LOOP]":
(PID.TID 0000.0001)           User time:  1.131300069391727E-002
(PID.TID 0000.0001)         System time:  0.000000000000000E+000
(PID.TID 0000.0001)     Wall clock time:  3.424096107482910E-002
(PID.TID 0000.0001)          No. starts:           1
(PID.TID 0000.0001)           No. stops:           1
(PID.TID 0000.0001)   Seconds in section "MAIN LOOP           [THE_MAIN_LOOP]":
(PID.TID 0000.0001)           User time:   30.9928276650608
(PID.TID 0000.0001)         System time:  0.000000000000000E+000
(PID.TID 0000.0001)     Wall clock time:   31.6752269268036
(PID.TID 0000.0001)          No. starts:           1
(PID.TID 0000.0001)           No. stops:           1
(PID.TID 0000.0001)   Seconds in section "INIT_PDAF           [THE_MAIN_LOOP]":
(PID.TID 0000.0001)           User time:  7.739998400211334E-004
(PID.TID 0000.0001)         System time:  0.000000000000000E+000
(PID.TID 0000.0001)     Wall clock time:  1.481056213378906E-003
(PID.TID 0000.0001)          No. starts:           1
(PID.TID 0000.0001)           No. stops:           1
(PID.TID 0000.0001)   Seconds in section "MAIN_DO_LOOP        [THE_MAIN_LOOP]":
(PID.TID 0000.0001)           User time:   2.90650839358568
(PID.TID 0000.0001)         System time:  0.000000000000000E+000
(PID.TID 0000.0001)     Wall clock time:   3.51093077659607
(PID.TID 0000.0001)          No. starts:         100
(PID.TID 0000.0001)           No. stops:         100
(PID.TID 0000.0001)   Seconds in section "FORWARD_STEP        [MAIN_DO_LOOP]":
(PID.TID 0000.0001)           User time:   2.90553152933717
(PID.TID 0000.0001)         System time:  0.000000000000000E+000
(PID.TID 0000.0001)     Wall clock time:   3.50991964340210
(PID.TID 0000.0001)          No. starts:         100
(PID.TID 0000.0001)           No. stops:         100
(PID.TID 0000.0001)   Seconds in section "LOAD_FIELDS_DRIVER  [FORWARD_STEP]":
(PID.TID 0000.0001)           User time:  8.398368954658508E-003
(PID.TID 0000.0001)         System time:  0.000000000000000E+000
(PID.TID 0000.0001)     Wall clock time:  9.374618530273438E-003
(PID.TID 0000.0001)          No. starts:         100
(PID.TID 0000.0001)           No. stops:         100
(PID.TID 0000.0001)   Seconds in section "EXTERNAL_FLDS_LOAD [LOAD_FLDS_DRIVER]":
(PID.TID 0000.0001)           User time:  7.422879338264465E-003
(PID.TID 0000.0001)         System time:  0.000000000000000E+000
(PID.TID 0000.0001)     Wall clock time:  8.422613143920898E-003
(PID.TID 0000.0001)          No. starts:         100
(PID.TID 0000.0001)           No. stops:         100
(PID.TID 0000.0001)   Seconds in section "DO_ATMOSPHERIC_PHYS [FORWARD_STEP]":
(PID.TID 0000.0001)           User time:  4.593469202518463E-004
(PID.TID 0000.0001)         System time:  0.000000000000000E+000
(PID.TID 0000.0001)     Wall clock time:  4.930496215820312E-004
(PID.TID 0000.0001)          No. starts:         100
(PID.TID 0000.0001)           No. stops:         100
(PID.TID 0000.0001)   Seconds in section "DO_OCEANIC_PHYS     [FORWARD_STEP]":
(PID.TID 0000.0001)           User time:  0.380372997373343
(PID.TID 0000.0001)         System time:  0.000000000000000E+000
(PID.TID 0000.0001)     Wall clock time:  0.387465953826904
(PID.TID 0000.0001)          No. starts:         100
(PID.TID 0000.0001)           No. stops:         100
(PID.TID 0000.0001)   Seconds in section "THERMODYNAMICS      [FORWARD_STEP]":
(PID.TID 0000.0001)           User time:  0.749360192567110
(PID.TID 0000.0001)         System time:  0.000000000000000E+000
(PID.TID 0000.0001)     Wall clock time:  0.764806747436523
(PID.TID 0000.0001)          No. starts:         100
(PID.TID 0000.0001)           No. stops:         100
(PID.TID 0000.0001)   Seconds in section "DYNAMICS            [FORWARD_STEP]":
(PID.TID 0000.0001)           User time:  0.818228621035814
(PID.TID 0000.0001)         System time:  0.000000000000000E+000
(PID.TID 0000.0001)     Wall clock time:  0.834991931915283
(PID.TID 0000.0001)          No. starts:         100
(PID.TID 0000.0001)           No. stops:         100
(PID.TID 0000.0001)   Seconds in section "SOLVE_FOR_PRESSURE  [FORWARD_STEP]":
(PID.TID 0000.0001)           User time:  0.381350189447403
(PID.TID 0000.0001)         System time:  0.000000000000000E+000
(PID.TID 0000.0001)     Wall clock time:  0.394923210144043
(PID.TID 0000.0001)          No. starts:         100
(PID.TID 0000.0001)           No. stops:         100
(PID.TID 0000.0001)   Seconds in section "MOM_CORRECTION_STEP [FORWARD_STEP]":
(PID.TID 0000.0001)           User time:  1.921575516462326E-002
(PID.TID 0000.0001)         System time:  0.000000000000000E+000
(PID.TID 0000.0001)     Wall clock time:  1.972198486328125E-002
(PID.TID 0000.0001)          No. starts:         100
(PID.TID 0000.0001)           No. stops:         100
(PID.TID 0000.0001)   Seconds in section "INTEGR_CONTINUITY   [FORWARD_STEP]":
(PID.TID 0000.0001)           User time:  3.284270316362381E-002
(PID.TID 0000.0001)         System time:  0.000000000000000E+000
(PID.TID 0000.0001)     Wall clock time:  3.390049934387207E-002
(PID.TID 0000.0001)          No. starts:         100
(PID.TID 0000.0001)           No. stops:         100
(PID.TID 0000.0001)   Seconds in section "TRC_CORRECTION_STEP [FORWARD_STEP]":
(PID.TID 0000.0001)           User time:  4.867985844612122E-004
(PID.TID 0000.0001)         System time:  0.000000000000000E+000
(PID.TID 0000.0001)     Wall clock time:  4.949569702148438E-004
(PID.TID 0000.0001)          No. starts:         100
(PID.TID 0000.0001)           No. stops:         100
(PID.TID 0000.0001)   Seconds in section "BLOCKING_EXCHANGES  [FORWARD_STEP]":
(PID.TID 0000.0001)           User time:  1.848813146352768E-002
(PID.TID 0000.0001)         System time:  0.000000000000000E+000
(PID.TID 0000.0001)     Wall clock time:  1.904892921447754E-002
(PID.TID 0000.0001)          No. starts:         100
(PID.TID 0000.0001)           No. stops:         100
(PID.TID 0000.0001)   Seconds in section "DO_STATEVARS_TAVE   [FORWARD_STEP]":
(PID.TID 0000.0001)           User time:  0.114279821515083
(PID.TID 0000.0001)         System time:  0.000000000000000E+000
(PID.TID 0000.0001)     Wall clock time:  0.123110294342041
(PID.TID 0000.0001)          No. starts:         100
(PID.TID 0000.0001)           No. stops:         100
(PID.TID 0000.0001)   Seconds in section "MONITOR             [FORWARD_STEP]":
(PID.TID 0000.0001)           User time:  0.279874861240387
(PID.TID 0000.0001)         System time:  0.000000000000000E+000
(PID.TID 0000.0001)     Wall clock time:  0.289293527603149
(PID.TID 0000.0001)          No. starts:         100
(PID.TID 0000.0001)           No. stops:         100
(PID.TID 0000.0001)   Seconds in section "DO_THE_MODEL_IO     [FORWARD_STEP]":
(PID.TID 0000.0001)           User time:  7.601916044950485E-002
(PID.TID 0000.0001)         System time:  0.000000000000000E+000
(PID.TID 0000.0001)     Wall clock time:  0.515888214111328
(PID.TID 0000.0001)          No. starts:         100
(PID.TID 0000.0001)           No. stops:         100
(PID.TID 0000.0001)   Seconds in section "DO_WRITE_PICKUP     [FORWARD_STEP]":
(PID.TID 0000.0001)           User time:  1.774859428405762E-002
(PID.TID 0000.0001)         System time:  0.000000000000000E+000
(PID.TID 0000.0001)     Wall clock time:  0.108908653259277
(PID.TID 0000.0001)          No. starts:         100
(PID.TID 0000.0001)           No. stops:         100
(PID.TID 0000.0001)   Seconds in section "ASSIMILATE_PDAF     [THE_MAIN_LOOP]":
(PID.TID 0000.0001)           User time:   28.0845151022077
(PID.TID 0000.0001)         System time:  0.000000000000000E+000
(PID.TID 0000.0001)     Wall clock time:   28.1617238521576
(PID.TID 0000.0001)          No. starts:         100
(PID.TID 0000.0001)           No. stops:         100
(PID.TID 0000.0001) // ======================================================
(PID.TID 0000.0001) // Tile <-> Tile communication statistics
(PID.TID 0000.0001) // ======================================================
(PID.TID 0000.0001) // o Tile number: 000001
(PID.TID 0000.0001) //         No. X exchanges =              0
(PID.TID 0000.0001) //            Max. X spins =              0
(PID.TID 0000.0001) //            Min. X spins =     1000000000
(PID.TID 0000.0001) //          Total. X spins =              0
(PID.TID 0000.0001) //            Avg. X spins =       0.00E+00
(PID.TID 0000.0001) //         No. Y exchanges =              0
(PID.TID 0000.0001) //            Max. Y spins =              0
(PID.TID 0000.0001) //            Min. Y spins =     1000000000
(PID.TID 0000.0001) //          Total. Y spins =              0
(PID.TID 0000.0001) //            Avg. Y spins =       0.00E+00
(PID.TID 0000.0001) // o Thread number: 000001
(PID.TID 0000.0001) //            No. barriers =         139118
(PID.TID 0000.0001) //      Max. barrier spins =              1
(PID.TID 0000.0001) //      Min. barrier spins =              1
(PID.TID 0000.0001) //     Total barrier spins =         139118
(PID.TID 0000.0001) //      Avg. barrier spins =       1.00E+00
PROGRAM MAIN: Execution ended Normally
