(PID.TID 0000.0001) 
(PID.TID 0000.0001) // ======================================================
(PID.TID 0000.0001) //                      MITgcm UV
(PID.TID 0000.0001) //                      =========
(PID.TID 0000.0001) // ======================================================
(PID.TID 0000.0001) // execution environment starting up...
(PID.TID 0000.0001) 
(PID.TID 0000.0001) // MITgcmUV version:  checkpoint68e
(PID.TID 0000.0001) // Build user:        hajsong
(PID.TID 0000.0001) // Build host:        acc00
(PID.TID 0000.0001) // Build date:        Mon Dec 20 17:40:35 KST 2021
(PID.TID 0000.0001) 
(PID.TID 0000.0001) // =======================================================
(PID.TID 0000.0001) // Execution Environment parameter file "eedata"
(PID.TID 0000.0001) // =======================================================
(PID.TID 0000.0001) ># Example "eedata" file
(PID.TID 0000.0001) ># Lines beginning "#" are comments
(PID.TID 0000.0001) ># nTx - No. threads per process in X
(PID.TID 0000.0001) ># nTy - No. threads per process in Y
(PID.TID 0000.0001) > &EEPARMS
(PID.TID 0000.0001) > nTx=1,
(PID.TID 0000.0001) > nTy=1,
(PID.TID 0000.0001) > &
(PID.TID 0000.0001) ># Note: Some systems use & as the
(PID.TID 0000.0001) ># namelist terminator. Other systems
(PID.TID 0000.0001) ># use a / character (as shown here).
(PID.TID 0000.0001) 
(PID.TID 0000.0001) // =======================================================
(PID.TID 0000.0001) // Computational Grid Specification ( see files "SIZE.h" )
(PID.TID 0000.0001) //                                  ( and "eedata"       )
(PID.TID 0000.0001) // =======================================================
(PID.TID 0000.0001)      nPx =    1 ; /* No. processes in X */
(PID.TID 0000.0001)      nPy =    1 ; /* No. processes in Y */
(PID.TID 0000.0001)      nSx =    1 ; /* No. tiles in X per process */
(PID.TID 0000.0001)      nSy =    1 ; /* No. tiles in Y per process */
(PID.TID 0000.0001)      sNx =   90 ; /* Tile size in X */
(PID.TID 0000.0001)      sNy =   40 ; /* Tile size in Y */
(PID.TID 0000.0001)      OLx =    2 ; /* Tile overlap distance in X */
(PID.TID 0000.0001)      OLy =    2 ; /* Tile overlap distance in Y */
(PID.TID 0000.0001)      nTx =    1 ; /* No. threads in X per process */
(PID.TID 0000.0001)      nTy =    1 ; /* No. threads in Y per process */
(PID.TID 0000.0001)       Nr =   15 ; /* No. levels in the vertical   */
(PID.TID 0000.0001)       Nx =   90 ; /* Total domain size in X ( = nPx*nSx*sNx ) */
(PID.TID 0000.0001)       Ny =   40 ; /* Total domain size in Y ( = nPy*nSy*sNy ) */
(PID.TID 0000.0001)   nTiles =    1 ; /* Total no. tiles per process ( = nSx*nSy ) */
(PID.TID 0000.0001)   nProcs =    1 ; /* Total no. processes ( = nPx*nPy ) */
(PID.TID 0000.0001) nThreads =    1 ; /* Total no. threads per process ( = nTx*nTy ) */
(PID.TID 0000.0001) usingMPI =    T ; /* Flag used to control whether MPI is in use */
(PID.TID 0000.0001)                   /*  note: To execute a program with MPI calls */
(PID.TID 0000.0001)                   /*  it must be launched appropriately e.g     */
(PID.TID 0000.0001)                   /*  "mpirun -np 64 ......"                    */
(PID.TID 0000.0001) useCoupler=   F ; /* Flag used to control communications with   */
(PID.TID 0000.0001)                   /*  other model components, through a coupler */
(PID.TID 0000.0001) useNest2W_parent =    F ;/* Control 2-W Nesting comm */
(PID.TID 0000.0001) useNest2W_child  =    F ;/* Control 2-W Nesting comm */
(PID.TID 0000.0001) debugMode =    F ; /* print debug msg. (sequence of S/R calls)  */
(PID.TID 0000.0001) printMapIncludesZeros=    F ; /* print zeros in Std.Output maps */
(PID.TID 0000.0001) maxLengthPrt1D=   65 /* maxLength of 1D array printed to StdOut */
(PID.TID 0000.0001) 
(PID.TID 0000.0001) ======= Starting MPI parallel Run =========
(PID.TID 0000.0001)  My Processor Name (len:  5 ) = acc00
(PID.TID 0000.0001)  Located at (  0,  0) on processor grid (0:  0,0:  0)
(PID.TID 0000.0001)  Origin at  (     1,     1) on global grid (1:    90,1:    40)
(PID.TID 0000.0001)  North neighbor = processor 0000
(PID.TID 0000.0001)  South neighbor = processor 0000
(PID.TID 0000.0001)   East neighbor = processor 0000
(PID.TID 0000.0001)   West neighbor = processor 0000
(PID.TID 0000.0001) // ======================================================
(PID.TID 0000.0001) // Mapping of tiles to threads
(PID.TID 0000.0001) // ======================================================
(PID.TID 0000.0001) // -o- Thread   1, tiles (   1:   1,   1:   1)
(PID.TID 0000.0001) 
(PID.TID 0000.0001) // ======================================================
(PID.TID 0000.0001) // Tile <-> Tile connectvity table
(PID.TID 0000.0001) // ======================================================
(PID.TID 0000.0001) // Tile number: 000001 (process no. = 000000)
(PID.TID 0000.0001) //        WEST: Tile = 000001, Process = 000000, Comm = put
(PID.TID 0000.0001) //                bi = 000001, bj = 000001
(PID.TID 0000.0001) //        EAST: Tile = 000001, Process = 000000, Comm = put
(PID.TID 0000.0001) //                bi = 000001, bj = 000001
(PID.TID 0000.0001) //       SOUTH: Tile = 000001, Process = 000000, Comm = put
(PID.TID 0000.0001) //                bi = 000001, bj = 000001
(PID.TID 0000.0001) //       NORTH: Tile = 000001, Process = 000000, Comm = put
(PID.TID 0000.0001) //                bi = 000001, bj = 000001
(PID.TID 0000.0001) 
(PID.TID 0000.0001)  INI_PARMS: opening model parameter file "data"
(PID.TID 0000.0001)  OPEN_COPY_DATA_FILE: opening file data
(PID.TID 0000.0001) // =======================================================
(PID.TID 0000.0001) // Parameter file "data"
(PID.TID 0000.0001) // =======================================================
(PID.TID 0000.0001) ># ====================
(PID.TID 0000.0001) ># | Model parameters |
(PID.TID 0000.0001) ># ====================
(PID.TID 0000.0001) >#
(PID.TID 0000.0001) ># Continuous equation parameters
(PID.TID 0000.0001) > &PARM01
(PID.TID 0000.0001) > tRef = 15*20.,
(PID.TID 0000.0001) > sRef = 15*35.,
(PID.TID 0000.0001) > viscAr=1.E-3,
(PID.TID 0000.0001) > viscAh=5.E5,
(PID.TID 0000.0001) > diffKhT=0.,
(PID.TID 0000.0001) > diffKrT=3.E-5,
(PID.TID 0000.0001) > diffKhS=0.,
(PID.TID 0000.0001) > diffKrS=3.E-5,
(PID.TID 0000.0001) > rhoConst=1035.,
(PID.TID 0000.0001) > rhoConstFresh=1000.,
(PID.TID 0000.0001) > eosType = 'JMD95Z',
(PID.TID 0000.0001) > ivdc_kappa=100.,
(PID.TID 0000.0001) > implicitDiffusion=.TRUE.,
(PID.TID 0000.0001) > allowFreezing=.TRUE.,
(PID.TID 0000.0001) > exactConserv=.TRUE.,
(PID.TID 0000.0001) > useRealFreshWaterFlux=.TRUE.,
(PID.TID 0000.0001) > useCDscheme=.TRUE.,
(PID.TID 0000.0001) ># turn on looped cells
(PID.TID 0000.0001) > hFacMin=.05,
(PID.TID 0000.0001) > hFacMindr=50.,
(PID.TID 0000.0001) ># set precision of data files
(PID.TID 0000.0001) > readBinaryPrec=32,
(PID.TID 0000.0001) > useSingleCpuIO=.TRUE.,
(PID.TID 0000.0001) > debugLevel=5,
(PID.TID 0000.0001) > &
(PID.TID 0000.0001) >
(PID.TID 0000.0001) ># Elliptic solver parameters
(PID.TID 0000.0001) > &PARM02
(PID.TID 0000.0001) > cg2dMaxIters=500,
(PID.TID 0000.0001) > cg2dTargetResidual=1.E-13,
(PID.TID 0000.0001) > &
(PID.TID 0000.0001) >
(PID.TID 0000.0001) ># Time stepping parameters
(PID.TID 0000.0001) > &PARM03
(PID.TID 0000.0001) > nIter0=      0,
(PID.TID 0000.0001) > nTimeSteps = 100,
(PID.TID 0000.0001) ># 100 years of integration will yield a reasonable flow field
(PID.TID 0000.0001) ># startTime =          0.,
(PID.TID 0000.0001) ># endTime   = 3110400000.,
(PID.TID 0000.0001) ># endTime   = 31104000.,
(PID.TID 0000.0001) > deltaTmom = 1800.,
(PID.TID 0000.0001) > tauCD =     321428.,
(PID.TID 0000.0001) > deltaTtracer= 86400.,
(PID.TID 0000.0001) > deltaTClock = 86400.,
(PID.TID 0000.0001) > deltaTfreesurf= 86400.,
(PID.TID 0000.0001) > abEps = 0.1,
(PID.TID 0000.0001) > pChkptFreq= 864000.,
(PID.TID 0000.0001) > dumpFreq=   864000.,
(PID.TID 0000.0001) > taveFreq=   864000.,
(PID.TID 0000.0001) > monitorFreq=1.,
(PID.TID 0000.0001) ># 2 months restoring timescale for temperature
(PID.TID 0000.0001) ># tauThetaClimRelax=  5184000.,
(PID.TID 0000.0001) ># 6 months restoring timescale for salinity
(PID.TID 0000.0001) ># tauSaltClimRelax = 15552000.,
(PID.TID 0000.0001) > periodicExternalForcing=.TRUE.,
(PID.TID 0000.0001) > externForcingPeriod=2592000.,
(PID.TID 0000.0001) > externForcingCycle=31104000.,
(PID.TID 0000.0001) > &
(PID.TID 0000.0001) >
(PID.TID 0000.0001) ># Gridding parameters
(PID.TID 0000.0001) > &PARM04
(PID.TID 0000.0001) > usingSphericalPolarGrid=.TRUE.,
(PID.TID 0000.0001) > delR= 50.,  70., 100., 140., 190.,
(PID.TID 0000.0001) >      240., 290., 340., 390., 440.,
(PID.TID 0000.0001) >      490., 540., 590., 640., 690.,
(PID.TID 0000.0001) > ygOrigin=-80.,
(PID.TID 0000.0001) > dySpacing=4.,
(PID.TID 0000.0001) > dxSpacing=4.,
(PID.TID 0000.0001) > &
(PID.TID 0000.0001) >
(PID.TID 0000.0001) ># Input datasets
(PID.TID 0000.0001) > &PARM05
(PID.TID 0000.0001) > bathyFile=      'bathymetry.bin',
(PID.TID 0000.0001) > hydrogThetaFile='lev_t.bin',
(PID.TID 0000.0001) > hydrogSaltFile= 'lev_s.bin',
(PID.TID 0000.0001) > zonalWindFile=  'trenberth_taux.bin',
(PID.TID 0000.0001) > meridWindFile=  'trenberth_tauy.bin',
(PID.TID 0000.0001) > thetaClimFile=  'lev_sst.bin',
(PID.TID 0000.0001) > saltClimFile=   'lev_sss.bin',
(PID.TID 0000.0001) > surfQnetFile=   'ncep_qnet.bin',
(PID.TID 0000.0001) > the_run_name=   'global_oce_latlon',
(PID.TID 0000.0001) ># fresh water flux is turned on, comment next line to it turn off
(PID.TID 0000.0001) ># (maybe better with surface salinity restoring)
(PID.TID 0000.0001) > EmPmRFile=      'ncep_emp.bin',
(PID.TID 0000.0001) ># checkIniTemp=.FALSE.,
(PID.TID 0000.0001) ># checkIniSalt=.FALSE.
(PID.TID 0000.0001) > &
(PID.TID 0000.0001) 
(PID.TID 0000.0001)  INI_PARMS ; starts to read PARM01
(PID.TID 0000.0001)  INI_PARMS ; read PARM01 : OK
(PID.TID 0000.0001) S/R INI_PARMS: No request for barotropic solver
(PID.TID 0000.0001) S/R INI_PARMS: => Use implicitFreeSurface as default
(PID.TID 0000.0001)  INI_PARMS ; starts to read PARM02
(PID.TID 0000.0001)  INI_PARMS ; read PARM02 : OK
(PID.TID 0000.0001)  INI_PARMS ; starts to read PARM03
(PID.TID 0000.0001)  INI_PARMS ; read PARM03 : OK
(PID.TID 0000.0001)  INI_PARMS ; starts to read PARM04
(PID.TID 0000.0001)  INI_PARMS ; read PARM04 : OK
(PID.TID 0000.0001)  INI_PARMS ; starts to read PARM05
(PID.TID 0000.0001)  INI_PARMS ; read PARM05 : OK
(PID.TID 0000.0001)  INI_PARMS: finished reading file "data"
(PID.TID 0000.0001)  PACKAGES_BOOT: opening data.pkg
(PID.TID 0000.0001)  OPEN_COPY_DATA_FILE: opening file data.pkg
(PID.TID 0000.0001) // =======================================================
(PID.TID 0000.0001) // Parameter file "data.pkg"
(PID.TID 0000.0001) // =======================================================
(PID.TID 0000.0001) ># Packages (lines beginning "#" are comments)
(PID.TID 0000.0001) > &PACKAGES
(PID.TID 0000.0001) > useGMRedi=.TRUE.,
(PID.TID 0000.0001) >#usePTRACERS=.TRUE.,
(PID.TID 0000.0001) >#useMNC=.TRUE.,
(PID.TID 0000.0001) > &
(PID.TID 0000.0001) 
(PID.TID 0000.0001)  PACKAGES_BOOT: finished reading data.pkg
(PID.TID 0000.0001)  PACKAGES_BOOT: On/Off package Summary
 --------  pkgs with a standard "usePKG" On/Off switch in "data.pkg":  --------
 pkg/gmredi               compiled   and   used ( useGMRedi                = T )
 pkg/ptracers             compiled but not used ( usePTRACERS              = F )
 pkg/mnc                  compiled but not used ( useMNC                   = F )
 -------- pkgs without standard "usePKG" On/Off switch in "data.pkg":  --------
 pkg/generic_advdiff      compiled   and   used ( useGAD                   = T )
 pkg/mom_common           compiled   and   used ( momStepping              = T )
 pkg/mom_vecinv           compiled but not used ( +vectorInvariantMomentum = F )
 pkg/mom_fluxform         compiled   and   used ( & not vectorInvariantMom = T )
 pkg/cd_code              compiled   and   used ( useCDscheme              = T )
 pkg/monitor              compiled   and   used ( monitorFreq > 0.         = T )
 pkg/timeave              compiled   and   used ( taveFreq > 0.            = T )
 pkg/debug                compiled but not used ( debugMode                = F )
 pkg/rw                   compiled   and   used
 pkg/mdsio                compiled   and   used
(PID.TID 0000.0001)  PACKAGES_BOOT: End of package Summary
(PID.TID 0000.0001) 
(PID.TID 0000.0001)  GM_READPARMS: opening data.gmredi
(PID.TID 0000.0001)  OPEN_COPY_DATA_FILE: opening file data.gmredi
(PID.TID 0000.0001) // =======================================================
(PID.TID 0000.0001) // Parameter file "data.gmredi"
(PID.TID 0000.0001) // =======================================================
(PID.TID 0000.0001) ># GM+Redi package parameters:
(PID.TID 0000.0001) >
(PID.TID 0000.0001) >#-from MOM :
(PID.TID 0000.0001) ># GM_background_K: 	G & Mc.W  diffusion coefficient
(PID.TID 0000.0001) ># GM_maxSlope    :	max slope of isopycnals
(PID.TID 0000.0001) ># GM_Scrit       :	transition for scaling diffusion coefficient
(PID.TID 0000.0001) ># GM_Sd          :	half width scaling for diffusion coefficient
(PID.TID 0000.0001) ># GM_taper_scheme:	slope clipping or one of the tapering schemes
(PID.TID 0000.0001) ># GM_Kmin_horiz  :	horizontal diffusion minimum value
(PID.TID 0000.0001) >
(PID.TID 0000.0001) >#-Option parameters (needs to "define" options in GMREDI_OPTIONS.h")
(PID.TID 0000.0001) ># GM_isopycK     :	isopycnal diffusion coefficient (default=GM_background_K)
(PID.TID 0000.0001) ># GM_AdvForm     :	turn on GM Advective form       (default=Skew flux form)
(PID.TID 0000.0001) >
(PID.TID 0000.0001) > &GM_PARM01
(PID.TID 0000.0001) >  GM_background_K    = 1.e+3,
(PID.TID 0000.0001) >  GM_taper_scheme    = 'gkw91',
(PID.TID 0000.0001) >  GM_maxSlope        = 1.e-2,
(PID.TID 0000.0001) >  GM_Kmin_horiz      = 50.,
(PID.TID 0000.0001) >  GM_Scrit           = 4.e-3,
(PID.TID 0000.0001) >  GM_Sd              = 1.e-3,
(PID.TID 0000.0001) ># GM_Visbeck_alpha   = 0.,
(PID.TID 0000.0001) ># GM_Visbeck_length  = 2.e+5,
(PID.TID 0000.0001) ># GM_Visbeck_depth   = 1.e+3,
(PID.TID 0000.0001) ># GM_Visbeck_maxval_K= 2.5e+3,
(PID.TID 0000.0001) > &
(PID.TID 0000.0001) >
(PID.TID 0000.0001) >
(PID.TID 0000.0001) 
(PID.TID 0000.0001)  GM_READPARMS: finished reading data.gmredi
(PID.TID 0000.0001) SET_PARMS: done
(PID.TID 0000.0001) Enter INI_VERTICAL_GRID: setInterFDr=    T ; setCenterDr=    F
(PID.TID 0000.0001) %MON XC_max                       =   3.5800000000000E+02
(PID.TID 0000.0001) %MON XC_min                       =   2.0000000000000E+00
(PID.TID 0000.0001) %MON XC_mean                      =   1.8000000000000E+02
(PID.TID 0000.0001) %MON XC_sd                        =   1.0391663325314E+02
(PID.TID 0000.0001) %MON XG_max                       =   3.5600000000000E+02
(PID.TID 0000.0001) %MON XG_min                       =   0.0000000000000E+00
(PID.TID 0000.0001) %MON XG_mean                      =   1.7800000000000E+02
(PID.TID 0000.0001) %MON XG_sd                        =   1.0391663325314E+02
(PID.TID 0000.0001) %MON DXC_max                      =   4.4443898815675E+05
(PID.TID 0000.0001) %MON DXC_min                      =   9.2460385861875E+04
(PID.TID 0000.0001) %MON DXC_mean                     =   3.1372497618153E+05
(PID.TID 0000.0001) %MON DXC_sd                       =   1.1216447457560E+05
(PID.TID 0000.0001) %MON DXF_max                      =   4.4443898815675E+05
(PID.TID 0000.0001) %MON DXF_min                      =   9.2460385861875E+04
(PID.TID 0000.0001) %MON DXF_mean                     =   3.1372497618153E+05
(PID.TID 0000.0001) %MON DXF_sd                       =   1.1216447457560E+05
(PID.TID 0000.0001) %MON DXG_max                      =   4.4470989340816E+05
(PID.TID 0000.0001) %MON DXG_min                      =   7.7223062580781E+04
(PID.TID 0000.0001) %MON DXG_mean                     =   3.1353386340260E+05
(PID.TID 0000.0001) %MON DXG_sd                       =   1.1256651772502E+05
(PID.TID 0000.0001) %MON DXV_max                      =   4.4470989340816E+05
(PID.TID 0000.0001) %MON DXV_min                      =   7.7223062580781E+04
(PID.TID 0000.0001) %MON DXV_mean                     =   3.1353386340260E+05
(PID.TID 0000.0001) %MON DXV_sd                       =   1.1256651772502E+05
(PID.TID 0000.0001) %MON YC_max                       =   7.8000000000000E+01
(PID.TID 0000.0001) %MON YC_min                       =  -7.8000000000000E+01
(PID.TID 0000.0001) %MON YC_mean                      =   0.0000000000000E+00
(PID.TID 0000.0001) %MON YC_sd                        =   4.6173585522461E+01
(PID.TID 0000.0001) %MON YG_max                       =   7.6000000000000E+01
(PID.TID 0000.0001) %MON YG_min                       =  -8.0000000000000E+01
(PID.TID 0000.0001) %MON YG_mean                      =  -2.0000000000000E+00
(PID.TID 0000.0001) %MON YG_sd                        =   4.6173585522461E+01
(PID.TID 0000.0001) %MON DYC_max                      =   4.4470989340816E+05
(PID.TID 0000.0001) %MON DYC_min                      =   4.4470989340816E+05
(PID.TID 0000.0001) %MON DYC_mean                     =   4.4470989340814E+05
(PID.TID 0000.0001) %MON DYC_sd                       =   1.9848812371492E-08
(PID.TID 0000.0001) %MON DYF_max                      =   4.4470989340816E+05
(PID.TID 0000.0001) %MON DYF_min                      =   4.4470989340816E+05
(PID.TID 0000.0001) %MON DYF_mean                     =   4.4470989340814E+05
(PID.TID 0000.0001) %MON DYF_sd                       =   1.9848812371492E-08
(PID.TID 0000.0001) %MON DYG_max                      =   4.4470989340816E+05
(PID.TID 0000.0001) %MON DYG_min                      =   4.4470989340816E+05
(PID.TID 0000.0001) %MON DYG_mean                     =   4.4470989340814E+05
(PID.TID 0000.0001) %MON DYG_sd                       =   1.9848812371492E-08
(PID.TID 0000.0001) %MON DYU_max                      =   4.4470989340816E+05
(PID.TID 0000.0001) %MON DYU_min                      =   4.4470989340816E+05
(PID.TID 0000.0001) %MON DYU_mean                     =   4.4470989340814E+05
(PID.TID 0000.0001) %MON DYU_sd                       =   1.9848812371492E-08
(PID.TID 0000.0001) %MON RA_max                       =   1.9760627980089E+11
(PID.TID 0000.0001) %MON RA_min                       =   4.1109698667290E+10
(PID.TID 0000.0001) %MON RA_mean                      =   1.3948826965197E+11
(PID.TID 0000.0001) %MON RA_sd                        =   4.9870522472902E+10
(PID.TID 0000.0001) %MON RAW_max                      =   1.9760627980089E+11
(PID.TID 0000.0001) %MON RAW_min                      =   4.1109698667290E+10
(PID.TID 0000.0001) %MON RAW_mean                     =   1.3948826965197E+11
(PID.TID 0000.0001) %MON RAW_sd                       =   4.9870522472902E+10
(PID.TID 0000.0001) %MON RAS_max                      =   1.9772672958215E+11
(PID.TID 0000.0001) %MON RAS_min                      =   3.4334886267983E+10
(PID.TID 0000.0001) %MON RAS_mean                     =   1.3940329716694E+11
(PID.TID 0000.0001) %MON RAS_sd                       =   5.0049278732354E+10
(PID.TID 0000.0001) %MON RAZ_max                      =   1.9772672958215E+11
(PID.TID 0000.0001) %MON RAZ_min                      =   3.4334886267983E+10
(PID.TID 0000.0001) %MON RAZ_mean                     =   1.3940329716694E+11
(PID.TID 0000.0001) %MON RAZ_sd                       =   5.0049278732354E+10
(PID.TID 0000.0001) %MON AngleCS_max                  =   1.0000000000000E+00
(PID.TID 0000.0001) %MON AngleCS_min                  =   1.0000000000000E+00
(PID.TID 0000.0001) %MON AngleCS_mean                 =   1.0000000000000E+00
(PID.TID 0000.0001) %MON AngleCS_sd                   =   0.0000000000000E+00
(PID.TID 0000.0001) %MON AngleSN_max                  =   0.0000000000000E+00
(PID.TID 0000.0001) %MON AngleSN_min                  =   0.0000000000000E+00
(PID.TID 0000.0001) %MON AngleSN_mean                 =   0.0000000000000E+00
(PID.TID 0000.0001) %MON AngleSN_sd                   =   0.0000000000000E+00
(PID.TID 0000.0001)  MDS_WRITEVEC_LOC: open file: RhoRef.data
(PID.TID 0000.0001)  MDS_WR_REC_RL: iRec,Dim =         1         15
(PID.TID 0000.0001)  MDS_READ_FIELD: opening global file: bathymetry.bin
(PID.TID 0000.0001) // =======================================================
(PID.TID 0000.0001) // Field Bottom depths (ini_depths)
(PID.TID 0000.0001) // CMIN =         -5.200000000000000E+03
(PID.TID 0000.0001) // CMAX =         -1.200000000000000E+02
(PID.TID 0000.0001) // CINT =          1.881481481481482E+02
(PID.TID 0000.0001) // SYMBOLS (CMIN->CMAX): -abcdefghijklmnopqrstuvwxyz+
(PID.TID 0000.0001) //                  0.0: .
(PID.TID 0000.0001) // RANGE I (Lo:Hi:Step):(    -1:    92:     1)
(PID.TID 0000.0001) // RANGE J (Lo:Hi:Step):(    42:    -1:    -1)
(PID.TID 0000.0001) // RANGE K (Lo:Hi:Step):(   1:   1:   1)
(PID.TID 0000.0001) // =======================================================
(PID.TID 0000.0001) K =   1
(PID.TID 0000.0001) //                I=8       I=18      I=28      I=38      I=48      I=58      I=68      I=78      I=88
(PID.TID 0000.0001) // |--J--|101234567|901234567|901234567|901234567|901234567|901234567|901234567|901234567|901234567|9012
(PID.TID 0000.0001) //     42 ............................................zyxxmgfeeefefgimnpwwwy..+zyy.....yyyyoiiihhz+.....
(PID.TID 0000.0001) //     41 ..............................................................................................
(PID.TID 0000.0001) //     40 qlloqz+.++++zzz++++++..................................................................+++qllo
(PID.TID 0000.0001) //     39 slloorzzzzzzzzz+...++.....................................................yxxz........+zvusllo
(PID.TID 0000.0001) //     38 mqpporzzzzzz+++...........................................................zxxy+......zyyvsmqpp
(PID.TID 0000.0001) //     37 mmmuz..................................................................++...zy+...zttyy.+smmmu
(PID.TID 0000.0001) //     36 utt+.........................................mm++....................+++++++znmm.zoowssvuyutt+
(PID.TID 0000.0001) //     35 ++++.................................+zzz..rrmmkk+...+gghn...........+++....+nmiijlsoopuww++++
(PID.TID 0000.0001) //     34 .....................................+vvy.ggqyxv+z.ccdffhim..................+nihhikkihhm+....
(PID.TID 0000.0001) //     33 +.....................................uuz---h------aaabdefin+.................zqvddflifffw+...
(PID.TID 0000.0001) //     32 +.....................................+t----h---------acdfgnn................+++gdffkofffm+...
(PID.TID 0000.0001) //     31 ......................................-----ad--------abddegil..............qbaafccdhqqgddm....
(PID.TID 0000.0001) //     30 .....................................f----b--b------------abd............zfbb--fbcdosjfddi....
(PID.TID 0000.0001) //     29 ...................................tu----e---fjg----------abdf...........eaac--abfmijaadgi....
(PID.TID 0000.0001) //     28 .................................+xfl-------------------bdedefi.........qbaa---aemfbbaaejz....
(PID.TID 0000.0001) //     27 ................xx..............+wfgfpf--------eallc---bbbccefgi...+++y.qb-----akfa---ah......
(PID.TID 0000.0001) //     26 ................xnn...........+vd---dna------a--aicfna---aabdfghku.++xssuy-----bgca---ci......
(PID.TID 0000.0001) //     25 ................iiik...oo+...+ivd---doaa-bc--ilglf--aa---aabcghhkll...ssum+xaaacjbaabdjk......
(PID.TID 0000.0001) //     24 ..............xnheeft.kkk+...uii.aagdm----aa-----a-------bbbcdefjljjju.zummwwbbchba--abi......
(PID.TID 0000.0001) //     23 ..............xgheefp.iikw...uuw..fihi----fed-----eaaa--bbbbcdfflkjiiiq....zykccefa--abd......
(PID.TID 0000.0001) //     22 uss...........bbelffslffkk...zz.wqkeeqoheccdfa-----egabaabcdddegghliiiqq......xeeehheehccquss.
(PID.TID 0000.0001) //     21 bbeir........nbbcdjhqdddiiz.....wqfeelgghmedea-----bibbcddddddefghklnqoo........ieeflhgcccbbei
(PID.TID 0000.0001) //     20 bbder.......ldcccdgkccccidd......z.vkkktqqhegg----aaacddddddddefghkiiijl.........nhfa--gfcbbde
(PID.TID 0000.0001) //     19 cdaaf.......kddosggpaaaibbccx...+z+.....r+nlec---agaaabcddddddefikfgffff...........d---cjhcdaa
(PID.TID 0000.0001) //     18 d---d.......kglggvliaaaibbcaaeaiv++...qqzolhecccfdgkaabcdfdddeeikgfgffdd+..........d---djhd---
(PID.TID 0000.0001) //     17 c---c.......l.feewlfaaaoaa----aiv.....qqnllslmlofcdbaacceffffhhligfigeddj.........hd---ckhc---
(PID.TID 0000.0001) //     16 ba--c......tn.ddgnlfdaaqa-----lv.......vnllvllnwv--accivomfffhilhgfffeddjf........re--aeigba--
(PID.TID 0000.0001) //     15 b--dpz....+ll.ccdfhmdddlc----av.........otsxoomv---abccddfihgijkhgfffeejfff......+fd---ckfb--d
(PID.TID 0000.0001) //     14 c--mcl....weeqbaafilkfend--eagy.........hhstofft----aacdheefijkmjhhjijiffff.....zlfdaaadlfc--m
(PID.TID 0000.0001) //     13 cclbbg....nccobaaiddgkffqrqeaal.........eeutqfft------aaceeffhijlkjhhigfffq....+jgfodccflhcclb
(PID.TID 0000.0001) //     12 hgaaacw+iiicclemhdddfliigfdcaabfaaaz....ccsurqpc--------abcifffikiiihhggff.....kbbbdfffglhhgaa
(PID.TID 0000.0001) //     11 gcaaacbbifccennhbbdefnihgfdccaaaa----..dcccnt.ncab-------aabcdfilhggjiggff....l---abcefjlkgcaa
(PID.TID 0000.0001) //     10 fcaaccbdaacfrllfbbdegkmmljhfdddba----d.dcccfx.nyrebaba----abcdgilhfeegijgi..+w--aa-abcfilkfcaa
(PID.TID 0000.0001) //      9 ffcdcccaaaoqsolfdeehikihhlllgfedcccccdmdcccf.vyfaaaaaaaa--abdehmjhfeeefglv.++w-----abcdfklffcd
(PID.TID 0000.0001) //      8 iffjklcaafddffeeccvznkfffhhhlkjifgjkkfeeddfsyvcaaaaaaccdcccdfgjligedbbdeg+.++xffn--cfddefliffj
(PID.TID 0000.0001) //      7 mqnnbbkkf--bmbaabbgtykfddeffeeddccdfhlffeelfbaaaaaacddeghgjgjlligeddaaabedfiiiiiisvkfkecchmqnn
(PID.TID 0000.0001) //      6 ca-------------aabdelttdddedddddccccdfkkiiffbaaaabcdgimmkmefecaaabbbaaabbdfiiiiispmmregifcca--
(PID.TID 0000.0001) //      5 -------a-------aacdehhhiddeddddddcccdfiikomodddefffmlmigedccaaaaaaaababbbdfiijsqgeccccbaa-----
(PID.TID 0000.0001) //      4 -ahebaabbbbbeihffgijiiiijpywnnpokkomkiiijmmmolkommmgffeeedccaaaaaabbcccefhmz..yjgeccccbaa--ahe
(PID.TID 0000.0001) //      3 ffhhrpjiiwyy............................yyotmjjjjgfeeeeeeddeffffheddeghjkzz..yqjgeddccdbbgffhh
(PID.TID 0000.0001) //      2 ............................................zyxxmgfeeefefgimnpwwwy..+zyy.....yyyyoiiihhz+.....
(PID.TID 0000.0001) //      1 ..............................................................................................
(PID.TID 0000.0001) //      0 qlloqz+.++++zzz++++++..................................................................+++qllo
(PID.TID 0000.0001) //     -1 slloorzzzzzzzzz+...++.....................................................yxxz........+zvusllo
(PID.TID 0000.0001) // =======================================================
(PID.TID 0000.0001) // END OF FIELD                                          =
(PID.TID 0000.0001) // =======================================================
(PID.TID 0000.0001) 
(PID.TID 0000.0001) // =======================================================
(PID.TID 0000.0001) // Field Surface reference r-position (ini_depths)
(PID.TID 0000.0001) // CMIN =          1.000000000000000E+32
(PID.TID 0000.0001) // CMAX =         -1.000000000000000E+32
(PID.TID 0000.0001) // CINT =          0.000000000000000E+00
(PID.TID 0000.0001) // SYMBOLS (CMIN->CMAX): -abcdefghijklmnopqrstuvwxyz+
(PID.TID 0000.0001) //                  0.0: .
(PID.TID 0000.0001) // RANGE I (Lo:Hi:Step):(    -1:    92:     1)
(PID.TID 0000.0001) // RANGE J (Lo:Hi:Step):(    42:    -1:    -1)
(PID.TID 0000.0001) // RANGE K (Lo:Hi:Step):(   1:   1:   1)
(PID.TID 0000.0001) // =======================================================
(PID.TID 0000.0001) // =======================================================
(PID.TID 0000.0001) // END OF FIELD                                          =
(PID.TID 0000.0001) // =======================================================
(PID.TID 0000.0001) 
(PID.TID 0000.0001) // =======================================================
(PID.TID 0000.0001) // Field Model R_low (ini_masks_etc)
(PID.TID 0000.0001) // CMIN =         -5.200000000000000E+03
(PID.TID 0000.0001) // CMAX =         -1.200000000000000E+02
(PID.TID 0000.0001) // CINT =          1.881481481481482E+02
(PID.TID 0000.0001) // SYMBOLS (CMIN->CMAX): -abcdefghijklmnopqrstuvwxyz+
(PID.TID 0000.0001) //                  0.0: .
(PID.TID 0000.0001) // RANGE I (Lo:Hi:Step):(    -1:    92:     1)
(PID.TID 0000.0001) // RANGE J (Lo:Hi:Step):(    42:    -1:    -1)
(PID.TID 0000.0001) // RANGE K (Lo:Hi:Step):(   1:   1:   1)
(PID.TID 0000.0001) // =======================================================
(PID.TID 0000.0001) K =   1
(PID.TID 0000.0001) //                I=8       I=18      I=28      I=38      I=48      I=58      I=68      I=78      I=88
(PID.TID 0000.0001) // |--J--|101234567|901234567|901234567|901234567|901234567|901234567|901234567|901234567|901234567|9012
(PID.TID 0000.0001) //     42 ............................................zyxxmgfeeefefgimnpwwwy..+zyy.....yyyyoiiihhz+.....
(PID.TID 0000.0001) //     41 ..............................................................................................
(PID.TID 0000.0001) //     40 qlloqz+.++++zzz++++++..................................................................+++qllo
(PID.TID 0000.0001) //     39 slloorzzzzzzzzz+...++.....................................................yxxz........+zvusllo
(PID.TID 0000.0001) //     38 mqpporzzzzzz+++...........................................................zxxy+......zyyvsmqpp
(PID.TID 0000.0001) //     37 mmmuz..................................................................++...zy+...yttyy.+smmmu
(PID.TID 0000.0001) //     36 utt+.........................................mm++....................+++++++znmm.yoowssvuyutt+
(PID.TID 0000.0001) //     35 ++++.................................+zzz..rrmmkk+...+gghn...........+++....+nmiijlsoopuww++++
(PID.TID 0000.0001) //     34 .....................................+vvy.ggqyxv+y.ccdffhim..................+nihhikkihhm+....
(PID.TID 0000.0001) //     33 +.....................................uuz---h------aaabdefin+.................zqvddflifffw+...
(PID.TID 0000.0001) //     32 +.....................................+t----h---------acdfgnn................+++gdffkofffm+...
(PID.TID 0000.0001) //     31 ......................................-----ad--------abddegil..............qbaafccdhqqgddm....
(PID.TID 0000.0001) //     30 .....................................f----b--b------------abd............zfbb--fbcdosjfddi....
(PID.TID 0000.0001) //     29 ...................................tu----e---fjg----------abdf...........eaac--abfmijaadgi....
(PID.TID 0000.0001) //     28 .................................+xfl-------------------bdedefi.........qbaa---aemfbbaaejz....
(PID.TID 0000.0001) //     27 ................xx..............+wfgfpf--------eallc---bbbccefgi...+++x.qb-----akfa---ah......
(PID.TID 0000.0001) //     26 ................xnn...........+vd---dna------a--aicfna---aabdfghku.++xssuy-----bgca---ci......
(PID.TID 0000.0001) //     25 ................iiik...oo+...+ivd---doaa-bc--ilglf--aa---aabcghhkll...ssum+xaaacjbaabdjk......
(PID.TID 0000.0001) //     24 ..............xnheeft.kkk+...uii.aagdm----aa-----a-------bbbcdefjljjju.zummwwbbchba--abi......
(PID.TID 0000.0001) //     23 ..............xgheefp.iikw...uuw..fihi----fed-----eaaa--bbbbcdfflkjiiiq....zykccefa--abd......
(PID.TID 0000.0001) //     22 uss...........bbelffslffkk...zz.wqkeeqoheccdfa-----egabaabcdddegghliiiqq......xeeehheehccquss.
(PID.TID 0000.0001) //     21 bbeir........nbbcdjhqdddiiz.....wqfeelgghmedea-----bibbcddddddefghklnqoo........ieeflhgcccbbei
(PID.TID 0000.0001) //     20 bbder.......ldcccdgkccccidd......z.vkkktqqhegg----aaacddddddddefghkiiijl.........nhfa--gfcbbde
(PID.TID 0000.0001) //     19 cdaaf.......kddosggpaaaibbccx...+z+.....r+nlec---agaaabcddccddefikfgffff...........d---cjhcdaa
(PID.TID 0000.0001) //     18 d---d.......kglggvliaaaibbcaaeaiv++...qqzolhecccfdgkaabcdfccdeeikgfgffdd+..........d---djhd---
(PID.TID 0000.0001) //     17 c---c.......l.feewlfaaaoaa----aiv.....qqnllslmlofcdbaacceffffhhligfigeddj.........hd---ckhc---
(PID.TID 0000.0001) //     16 ba--c......tn.ddgnlfdaaqa-----lv.......vnllvllnwv--accivomfffhilhgfffeddjf........re--aeigba--
(PID.TID 0000.0001) //     15 b--dpz....+ll.ccdfhmdddlc----av.........otsxoomv---abccddfihgijkhgfffeejfff......+fd---ckfb--d
(PID.TID 0000.0001) //     14 c--mcl....weeqbaafilkfend--eagy.........hhstofft----aacdheefijkmjhhjijiffff.....zlfdaaadlfc--m
(PID.TID 0000.0001) //     13 cclbbg....nccobaaiddgkffqrqeaal.........eeutqfft------aaceeffhijlkjhhigfffq....+jgfodccflhcclb
(PID.TID 0000.0001) //     12 hgaaacw+iiicclemhdddfliigfdcaabfaaaz....ccsurqpc--------abcifffikiiihhggff.....kbbbdfffglhhgaa
(PID.TID 0000.0001) //     11 gcaaacbbifccennhbbdefnihgfdccaaaa----..dcccnt.ncab-------aabcdfilhggjiggff....l---abcefjlkgcaa
(PID.TID 0000.0001) //     10 fcaaccbdaacfrllfbbdegkmmljhfdddba----d.dcccfx.nyrebaba----abcdgilhfeegijgi..+w--aa-abcfilkfcaa
(PID.TID 0000.0001) //      9 ffcdcccaaaoqsolfdeehikihhlllgfedcccccdmdcccf.vyfaaaaaaaa--abdehmjhfeeefglv.++w-----abcdfklffcd
(PID.TID 0000.0001) //      8 iffjklcaafddffeeccvznkfffhhhlkjifgjkkfeeddfsyvcaaaaaaccdcccdfgjligedbbceg+.++xffn--cfddefliffj
(PID.TID 0000.0001) //      7 mqnnbbkkf--bmbaabbgtykfddeffeeddccdfhlffeelfbaaaaaacddeghgjgjlligeddaaabedfiiiiiisvkfkecchmqnn
(PID.TID 0000.0001) //      6 ca-------------aabcelttdddedddddccccdfkkiiffbaaaabcdgimmkmefecaaabbbaaabbdfiiiiispmmregifcca--
(PID.TID 0000.0001) //      5 -------a-------aaccehhhiddeddddddcccdfiikomodddefffmlmigedccaaaaaaaababbbdfiijsqgeccccbaa-----
(PID.TID 0000.0001) //      4 -ahebaabbbbbeihffgijiiiijpywnnpokkomkiiijmmmolkommmgffeeedccaaaaaabbcccefhmz..yjgeccccbaa--ahe
(PID.TID 0000.0001) //      3 ffhhrpjiiwyy............................yxotmjjjjgfeeeeeeddeffffheddeghjkyy..yqjgeddccdbbgffhh
(PID.TID 0000.0001) //      2 ............................................zyxxmgfeeefefgimnpwwwy..+zyy.....yyyyoiiihhz+.....
(PID.TID 0000.0001) //      1 ..............................................................................................
(PID.TID 0000.0001) //      0 qlloqz+.++++zzz++++++..................................................................+++qllo
(PID.TID 0000.0001) //     -1 slloorzzzzzzzzz+...++.....................................................yxxz........+zvusllo
(PID.TID 0000.0001) // =======================================================
(PID.TID 0000.0001) // END OF FIELD                                          =
(PID.TID 0000.0001) // =======================================================
(PID.TID 0000.0001) 
(PID.TID 0000.0001) // =======================================================
(PID.TID 0000.0001) // Field Model Ro_surf (ini_masks_etc)
(PID.TID 0000.0001) // CMIN =          1.000000000000000E+32
(PID.TID 0000.0001) // CMAX =         -1.000000000000000E+32
(PID.TID 0000.0001) // CINT =          0.000000000000000E+00
(PID.TID 0000.0001) // SYMBOLS (CMIN->CMAX): -abcdefghijklmnopqrstuvwxyz+
(PID.TID 0000.0001) //                  0.0: .
(PID.TID 0000.0001) // RANGE I (Lo:Hi:Step):(    -1:    92:     1)
(PID.TID 0000.0001) // RANGE J (Lo:Hi:Step):(    42:    -1:    -1)
(PID.TID 0000.0001) // RANGE K (Lo:Hi:Step):(   1:   1:   1)
(PID.TID 0000.0001) // =======================================================
(PID.TID 0000.0001) // =======================================================
(PID.TID 0000.0001) // END OF FIELD                                          =
(PID.TID 0000.0001) // =======================================================
(PID.TID 0000.0001) 
(PID.TID 0000.0001) // =======================================================
(PID.TID 0000.0001) // Field hFacC at iteration          0
(PID.TID 0000.0001) // CMIN =          1.000000000000000E+00
(PID.TID 0000.0001) // CMAX =          1.000000000000000E+00
(PID.TID 0000.0001) // CINT =          0.000000000000000E+00
(PID.TID 0000.0001) // SYMBOLS (CMIN->CMAX): -abcdefghijklmnopqrstuvwxyz+
(PID.TID 0000.0001) //                  0.0: .
(PID.TID 0000.0001) // RANGE I (Lo:Hi:Step):(    -1:    92:     1)
(PID.TID 0000.0001) // RANGE J (Lo:Hi:Step):(    42:    -1:    -1)
(PID.TID 0000.0001) // RANGE K (Lo:Hi:Step):(   1:   1:   1)
(PID.TID 0000.0001) // =======================================================
(PID.TID 0000.0001) // =======================================================
(PID.TID 0000.0001) // END OF FIELD                                          =
(PID.TID 0000.0001) // =======================================================
(PID.TID 0000.0001) 
(PID.TID 0000.0001) // =======================================================
(PID.TID 0000.0001) // Field hFacW at iteration          0
(PID.TID 0000.0001) // CMIN =          1.000000000000000E+00
(PID.TID 0000.0001) // CMAX =          1.000000000000000E+00
(PID.TID 0000.0001) // CINT =          0.000000000000000E+00
(PID.TID 0000.0001) // SYMBOLS (CMIN->CMAX): -abcdefghijklmnopqrstuvwxyz+
(PID.TID 0000.0001) //                  0.0: .
(PID.TID 0000.0001) // RANGE I (Lo:Hi:Step):(    -1:    92:     1)
(PID.TID 0000.0001) // RANGE J (Lo:Hi:Step):(    42:    -1:    -1)
(PID.TID 0000.0001) // RANGE K (Lo:Hi:Step):(   1:   1:   1)
(PID.TID 0000.0001) // =======================================================
(PID.TID 0000.0001) // =======================================================
(PID.TID 0000.0001) // END OF FIELD                                          =
(PID.TID 0000.0001) // =======================================================
(PID.TID 0000.0001) 
(PID.TID 0000.0001) // =======================================================
(PID.TID 0000.0001) // Field hFacS at iteration          0
(PID.TID 0000.0001) // CMIN =          1.000000000000000E+00
(PID.TID 0000.0001) // CMAX =          1.000000000000000E+00
(PID.TID 0000.0001) // CINT =          0.000000000000000E+00
(PID.TID 0000.0001) // SYMBOLS (CMIN->CMAX): -abcdefghijklmnopqrstuvwxyz+
(PID.TID 0000.0001) //                  0.0: .
(PID.TID 0000.0001) // RANGE I (Lo:Hi:Step):(    -1:    92:     1)
(PID.TID 0000.0001) // RANGE J (Lo:Hi:Step):(    42:    -1:    -1)
(PID.TID 0000.0001) // RANGE K (Lo:Hi:Step):(   1:   1:   1)
(PID.TID 0000.0001) // =======================================================
(PID.TID 0000.0001) // =======================================================
(PID.TID 0000.0001) // END OF FIELD                                          =
(PID.TID 0000.0001) // =======================================================
(PID.TID 0000.0001) 
(PID.TID 0000.0001) GAD_INIT_FIXED: GAD_OlMinSize=  1  0  1
(PID.TID 0000.0001) 
(PID.TID 0000.0001) // ===================================
(PID.TID 0000.0001) // GAD parameters :
(PID.TID 0000.0001) // ===================================
(PID.TID 0000.0001) tempAdvScheme =   /* Temp. Horiz.Advection scheme selector */
(PID.TID 0000.0001)                       2
(PID.TID 0000.0001)     ;
(PID.TID 0000.0001) tempVertAdvScheme =   /* Temp. Vert. Advection scheme selector */
(PID.TID 0000.0001)                       2
(PID.TID 0000.0001)     ;
(PID.TID 0000.0001) tempMultiDimAdvec =   /* use Muti-Dim Advec method for Temp */
(PID.TID 0000.0001)                   F
(PID.TID 0000.0001)     ;
(PID.TID 0000.0001) tempSOM_Advection = /* use 2nd Order Moment Advection for Temp */
(PID.TID 0000.0001)                   F
(PID.TID 0000.0001)     ;
(PID.TID 0000.0001) AdamsBashforthGt = /* apply Adams-Bashforth extrapolation on Gt */
(PID.TID 0000.0001)                   T
(PID.TID 0000.0001)     ;
(PID.TID 0000.0001) AdamsBashforth_T = /* apply Adams-Bashforth extrapolation on Temp */
(PID.TID 0000.0001)                   F
(PID.TID 0000.0001)     ;
(PID.TID 0000.0001) saltAdvScheme =   /* Salt. Horiz.advection scheme selector */
(PID.TID 0000.0001)                       2
(PID.TID 0000.0001)     ;
(PID.TID 0000.0001) saltVertAdvScheme =   /* Salt. Vert. Advection scheme selector */
(PID.TID 0000.0001)                       2
(PID.TID 0000.0001)     ;
(PID.TID 0000.0001) saltMultiDimAdvec =   /* use Muti-Dim Advec method for Salt */
(PID.TID 0000.0001)                   F
(PID.TID 0000.0001)     ;
(PID.TID 0000.0001) saltSOM_Advection = /* use 2nd Order Moment Advection for Salt */
(PID.TID 0000.0001)                   F
(PID.TID 0000.0001)     ;
(PID.TID 0000.0001) AdamsBashforthGs = /* apply Adams-Bashforth extrapolation on Gs */
(PID.TID 0000.0001)                   T
(PID.TID 0000.0001)     ;
(PID.TID 0000.0001) AdamsBashforth_S = /* apply Adams-Bashforth extrapolation on Salt */
(PID.TID 0000.0001)                   F
(PID.TID 0000.0001)     ;
(PID.TID 0000.0001) // ===================================
(PID.TID 0000.0001) %MON fCori_max                    =   1.4265546244797E-04
(PID.TID 0000.0001) %MON fCori_min                    =  -1.4265546244797E-04
(PID.TID 0000.0001) %MON fCori_mean                   =  -1.2347858075529E-21
(PID.TID 0000.0001) %MON fCori_sd                     =   9.6599226301547E-05
(PID.TID 0000.0001) %MON fCoriG_max                   =   1.4151032568025E-04
(PID.TID 0000.0001) %MON fCoriG_min                   =  -1.4362679550910E-04
(PID.TID 0000.0001) %MON fCoriG_mean                  =  -3.5906698877274E-06
(PID.TID 0000.0001) %MON fCoriG_sd                    =   9.6548915696244E-05
(PID.TID 0000.0001) %MON fCoriCos_max                 =   1.4575362704741E-04
(PID.TID 0000.0001) %MON fCoriCos_min                 =   3.0322354601388E-05
(PID.TID 0000.0001) %MON fCoriCos_mean                =   1.0288600773632E-04
(PID.TID 0000.0001) %MON fCoriCos_sd                  =   3.6784304327266E-05
(PID.TID 0000.0001) INI_CG2D: CG2D normalisation factor =  6.5682677425711703E-05
(PID.TID 0000.0001) 
(PID.TID 0000.0001) // =======================================================
(PID.TID 0000.0001) // Model configuration
(PID.TID 0000.0001) // =======================================================
(PID.TID 0000.0001) //
(PID.TID 0000.0001) // "Physical" paramters ( PARM01 in namelist )
(PID.TID 0000.0001) //
(PID.TID 0000.0001) buoyancyRelation = /* Type of relation to get Buoyancy */
(PID.TID 0000.0001)               'OCEANIC'
(PID.TID 0000.0001)     ;
(PID.TID 0000.0001) fluidIsAir   =  /* fluid major constituent is Air */
(PID.TID 0000.0001)                   F
(PID.TID 0000.0001)     ;
(PID.TID 0000.0001) fluidIsWater =  /* fluid major constituent is Water */
(PID.TID 0000.0001)                   T
(PID.TID 0000.0001)     ;
(PID.TID 0000.0001) usingPCoords =  /* use p (or p*) vertical coordinate */
(PID.TID 0000.0001)                   F
(PID.TID 0000.0001)     ;
(PID.TID 0000.0001) usingZCoords =  /* use z (or z*) vertical coordinate */
(PID.TID 0000.0001)                   T
(PID.TID 0000.0001)     ;
(PID.TID 0000.0001) tRef =   /* Reference temperature profile ( oC or K ) */
(PID.TID 0000.0001)    15 @  2.000000000000000E+01              /* K =  1: 15 */
(PID.TID 0000.0001)     ;
(PID.TID 0000.0001) sRef =   /* Reference salinity profile ( g/kg ) */
(PID.TID 0000.0001)    15 @  3.500000000000000E+01              /* K =  1: 15 */
(PID.TID 0000.0001)     ;
(PID.TID 0000.0001) useStrainTensionVisc= /* Use StrainTension Form of Viscous Operator */
(PID.TID 0000.0001)                   F
(PID.TID 0000.0001)     ;
(PID.TID 0000.0001) useVariableVisc = /* Use variable horizontal viscosity */
(PID.TID 0000.0001)                   F
(PID.TID 0000.0001)     ;
(PID.TID 0000.0001) useHarmonicVisc = /* Use harmonic horizontal viscosity */
(PID.TID 0000.0001)                   T
(PID.TID 0000.0001)     ;
(PID.TID 0000.0001) useBiharmonicVisc= /* Use biharmonic horiz.  viscosity */
(PID.TID 0000.0001)                   F
(PID.TID 0000.0001)     ;
(PID.TID 0000.0001) useSmag3D = /* Use isotropic 3-D Smagorinsky viscosity */
(PID.TID 0000.0001)                   F
(PID.TID 0000.0001)     ;
(PID.TID 0000.0001) viscAh  =   /* Lateral harmonic viscosity ( m^2/s ) */
(PID.TID 0000.0001)                 5.000000000000000E+05
(PID.TID 0000.0001)     ;
(PID.TID 0000.0001) viscA4  =   /* Lateral biharmonic viscosity ( m^4/s ) */
(PID.TID 0000.0001)                 0.000000000000000E+00
(PID.TID 0000.0001)     ;
(PID.TID 0000.0001) no_slip_sides =  /* Viscous BCs: No-slip sides */
(PID.TID 0000.0001)                   T
(PID.TID 0000.0001)     ;
(PID.TID 0000.0001) sideDragFactor = /* side-drag scaling factor (non-dim) */
(PID.TID 0000.0001)                 2.000000000000000E+00
(PID.TID 0000.0001)     ;
(PID.TID 0000.0001) viscArNr = /* vertical profile of vertical viscosity ( m^2/s )*/
(PID.TID 0000.0001)    15 @  1.000000000000000E-03              /* K =  1: 15 */
(PID.TID 0000.0001)     ;
(PID.TID 0000.0001) no_slip_bottom =  /* Viscous BCs: No-slip bottom */
(PID.TID 0000.0001)                   T
(PID.TID 0000.0001)     ;
(PID.TID 0000.0001) bottomVisc_pCell = /* Partial-cell in bottom Visc. BC */
(PID.TID 0000.0001)                   F
(PID.TID 0000.0001)     ;
(PID.TID 0000.0001) bottomDragLinear = /* linear bottom-drag coefficient ( m/s ) */
(PID.TID 0000.0001)                 0.000000000000000E+00
(PID.TID 0000.0001)     ;
(PID.TID 0000.0001) bottomDragQuadratic = /* quadratic bottom-drag coefficient (-) */
(PID.TID 0000.0001)                 0.000000000000000E+00
(PID.TID 0000.0001)     ;
(PID.TID 0000.0001) selectBotDragQuadr = /* select quadratic bottom drag options */
(PID.TID 0000.0001)                      -1
(PID.TID 0000.0001)     ;
(PID.TID 0000.0001) diffKhT =   /* Laplacian diffusion of heat laterally ( m^2/s ) */
(PID.TID 0000.0001)                 0.000000000000000E+00
(PID.TID 0000.0001)     ;
(PID.TID 0000.0001) diffK4T =   /* Biharmonic diffusion of heat laterally ( m^4/s ) */
(PID.TID 0000.0001)                 0.000000000000000E+00
(PID.TID 0000.0001)     ;
(PID.TID 0000.0001) diffKhS =   /* Laplacian diffusion of salt laterally ( m^2/s ) */
(PID.TID 0000.0001)                 0.000000000000000E+00
(PID.TID 0000.0001)     ;
(PID.TID 0000.0001) diffK4S =   /* Biharmonic diffusion of salt laterally ( m^4/s ) */
(PID.TID 0000.0001)                 0.000000000000000E+00
(PID.TID 0000.0001)     ;
(PID.TID 0000.0001) diffKrNrT = /* vertical profile of vertical diffusion of Temp ( m^2/s )*/
(PID.TID 0000.0001)    15 @  3.000000000000000E-05              /* K =  1: 15 */
(PID.TID 0000.0001)     ;
(PID.TID 0000.0001) diffKrNrS = /* vertical profile of vertical diffusion of Salt ( m^2/s )*/
(PID.TID 0000.0001)    15 @  3.000000000000000E-05              /* K =  1: 15 */
(PID.TID 0000.0001)     ;
(PID.TID 0000.0001) diffKrBL79surf = /* Surface diffusion for Bryan and Lewis 79 ( m^2/s ) */
(PID.TID 0000.0001)                 0.000000000000000E+00
(PID.TID 0000.0001)     ;
(PID.TID 0000.0001) diffKrBL79deep = /* Deep diffusion for Bryan and Lewis 1979 ( m^2/s ) */
(PID.TID 0000.0001)                 0.000000000000000E+00
(PID.TID 0000.0001)     ;
(PID.TID 0000.0001) diffKrBL79scl = /* Depth scale for Bryan and Lewis 1979 ( m ) */
(PID.TID 0000.0001)                 2.000000000000000E+02
(PID.TID 0000.0001)     ;
(PID.TID 0000.0001) diffKrBL79Ho = /* Turning depth for Bryan and Lewis 1979 ( m ) */
(PID.TID 0000.0001)                -2.000000000000000E+03
(PID.TID 0000.0001)     ;
(PID.TID 0000.0001) ivdc_kappa = /* Implicit Vertical Diffusivity for Convection ( m^2/s) */
(PID.TID 0000.0001)                 1.000000000000000E+02
(PID.TID 0000.0001)     ;
(PID.TID 0000.0001) hMixCriteria=  /* Criteria for mixed-layer diagnostic */
(PID.TID 0000.0001)                -8.000000000000000E-01
(PID.TID 0000.0001)     ;
(PID.TID 0000.0001) dRhoSmall =  /* Parameter for mixed-layer diagnostic */
(PID.TID 0000.0001)                 1.000000000000000E-06
(PID.TID 0000.0001)     ;
(PID.TID 0000.0001) hMixSmooth=  /* Smoothing parameter for mixed-layer diagnostic */
(PID.TID 0000.0001)                 0.000000000000000E+00
(PID.TID 0000.0001)     ;
(PID.TID 0000.0001) eosType =  /* Type of Equation of State */
(PID.TID 0000.0001)               'JMD95Z'
(PID.TID 0000.0001)     ;
(PID.TID 0000.0001) eosRefP0 = /* Reference atmospheric pressure for EOS ( Pa ) */
(PID.TID 0000.0001)                 1.013250000000000E+05
(PID.TID 0000.0001)     ;
(PID.TID 0000.0001) selectP_inEOS_Zc = /* select pressure to use in EOS (0,1,2,3) */
(PID.TID 0000.0001)                       0
(PID.TID 0000.0001)     0= -g*rhoConst*z ; 1= pRef (from tRef,sRef); 2= Hyd P ; 3= Hyd+NH P
(PID.TID 0000.0001)     ;
(PID.TID 0000.0001) surf_pRef = /* Surface reference pressure ( Pa ) */
(PID.TID 0000.0001)                 1.013250000000000E+05
(PID.TID 0000.0001)     ;
(PID.TID 0000.0001) HeatCapacity_Cp =  /* Specific heat capacity ( J/kg/K ) */
(PID.TID 0000.0001)                 3.994000000000000E+03
(PID.TID 0000.0001)     ;
(PID.TID 0000.0001) celsius2K = /* 0 degree Celsius converted to Kelvin ( K ) */
(PID.TID 0000.0001)                 2.731500000000000E+02
(PID.TID 0000.0001)     ;
(PID.TID 0000.0001) rhoConst  = /* Reference density (Boussinesq)  ( kg/m^3 ) */
(PID.TID 0000.0001)                 1.035000000000000E+03
(PID.TID 0000.0001)     ;
(PID.TID 0000.0001) rhoFacC = /* normalized Reference density @ cell-Center (-) */
(PID.TID 0000.0001)    15 @  1.000000000000000E+00              /* K =  1: 15 */
(PID.TID 0000.0001)     ;
(PID.TID 0000.0001) rhoFacF = /* normalized Reference density @ W-Interface (-) */
(PID.TID 0000.0001)    16 @  1.000000000000000E+00              /* K =  1: 16 */
(PID.TID 0000.0001)     ;
(PID.TID 0000.0001) rhoConstFresh = /* Fresh-water reference density ( kg/m^3 ) */
(PID.TID 0000.0001)                 1.000000000000000E+03
(PID.TID 0000.0001)     ;
(PID.TID 0000.0001) gravity =   /* Gravitational acceleration ( m/s^2 ) */
(PID.TID 0000.0001)                 9.810000000000000E+00
(PID.TID 0000.0001)     ;
(PID.TID 0000.0001) gBaro =   /* Barotropic gravity ( m/s^2 ) */
(PID.TID 0000.0001)                 9.810000000000000E+00
(PID.TID 0000.0001)     ;
(PID.TID 0000.0001) gravFacC = /* gravity factor (vs surf.) @ cell-Center (-) */
(PID.TID 0000.0001)    15 @  1.000000000000000E+00              /* K =  1: 15 */
(PID.TID 0000.0001)     ;
(PID.TID 0000.0001) gravFacF = /* gravity factor (vs surf.) @ W-Interface (-) */
(PID.TID 0000.0001)    16 @  1.000000000000000E+00              /* K =  1: 16 */
(PID.TID 0000.0001)     ;
(PID.TID 0000.0001) rotationPeriod =   /* Rotation Period ( s ) */
(PID.TID 0000.0001)                 8.616400000000000E+04
(PID.TID 0000.0001)     ;
(PID.TID 0000.0001) omega =   /* Angular velocity ( rad/s ) */
(PID.TID 0000.0001)                 7.292123516990375E-05
(PID.TID 0000.0001)     ;
(PID.TID 0000.0001) f0 =   /* Reference coriolis parameter ( 1/s ) */
(PID.TID 0000.0001)                 1.000000000000000E-04
(PID.TID 0000.0001)     ;
(PID.TID 0000.0001) beta =   /* Beta ( 1/(m.s) ) */
(PID.TID 0000.0001)                 9.999999999999999E-12
(PID.TID 0000.0001)     ;
(PID.TID 0000.0001) fPrime =   /* Second coriolis parameter ( 1/s ) */
(PID.TID 0000.0001)                 0.000000000000000E+00
(PID.TID 0000.0001)     ;
(PID.TID 0000.0001) rigidLid =   /* Rigid lid on/off flag */
(PID.TID 0000.0001)                   F
(PID.TID 0000.0001)     ;
(PID.TID 0000.0001) implicitFreeSurface =   /* Implicit free surface on/off flag */
(PID.TID 0000.0001)                   T
(PID.TID 0000.0001)     ;
(PID.TID 0000.0001) freeSurfFac =   /* Implicit free surface factor */
(PID.TID 0000.0001)                 1.000000000000000E+00
(PID.TID 0000.0001)     ;
(PID.TID 0000.0001) implicSurfPress =  /* Surface Pressure implicit factor (0-1) */
(PID.TID 0000.0001)                 1.000000000000000E+00
(PID.TID 0000.0001)     ;
(PID.TID 0000.0001) implicDiv2DFlow =  /* Barot. Flow Div. implicit factor (0-1) */
(PID.TID 0000.0001)                 1.000000000000000E+00
(PID.TID 0000.0001)     ;
(PID.TID 0000.0001) uniformLin_PhiSurf = /* use uniform Bo_surf on/off flag */
(PID.TID 0000.0001)                   T
(PID.TID 0000.0001)     ;
(PID.TID 0000.0001) uniformFreeSurfLev = /* free-surface level-index is uniform */
(PID.TID 0000.0001)                   T
(PID.TID 0000.0001)     ;
(PID.TID 0000.0001) sIceLoadFac =  /* scale factor for sIceLoad (0-1) */
(PID.TID 0000.0001)                 1.000000000000000E+00
(PID.TID 0000.0001)     ;
(PID.TID 0000.0001) hFacMin =   /* minimum partial cell factor (hFac) */
(PID.TID 0000.0001)                 5.000000000000000E-02
(PID.TID 0000.0001)     ;
(PID.TID 0000.0001) hFacMinDr = /* minimum partial cell thickness ( m) */
(PID.TID 0000.0001)                 5.000000000000000E+01
(PID.TID 0000.0001)     ;
(PID.TID 0000.0001) exactConserv =  /* Exact Volume Conservation on/off flag */
(PID.TID 0000.0001)                   T
(PID.TID 0000.0001)     ;
(PID.TID 0000.0001) linFSConserveTr = /* Tracer correction for Lin Free Surface on/off flag */
(PID.TID 0000.0001)                   F
(PID.TID 0000.0001)     ;
(PID.TID 0000.0001) nonlinFreeSurf = /* Non-linear Free Surf. options (-1,0,1,2,3)*/
(PID.TID 0000.0001)                       0
(PID.TID 0000.0001)      -1,0= Off ; 1,2,3= On, 2=+rescale gU,gV, 3=+update cg2d solv.
(PID.TID 0000.0001)     ;
(PID.TID 0000.0001) hFacInf =   /* lower threshold for hFac (nonlinFreeSurf only)*/
(PID.TID 0000.0001)                 2.000000000000000E-01
(PID.TID 0000.0001)     ;
(PID.TID 0000.0001) hFacSup =   /* upper threshold for hFac (nonlinFreeSurf only)*/
(PID.TID 0000.0001)                 2.000000000000000E+00
(PID.TID 0000.0001)     ;
(PID.TID 0000.0001) select_rStar = /* r* Vertical coord. options (=0 r coord.; >0 uses r*)*/
(PID.TID 0000.0001)                       0
(PID.TID 0000.0001)     ;
(PID.TID 0000.0001) useRealFreshWaterFlux = /* Real Fresh Water Flux on/off flag*/
(PID.TID 0000.0001)                   T
(PID.TID 0000.0001)     ;
(PID.TID 0000.0001) temp_EvPrRn = /* Temp. of Evap/Prec/R (UNSET=use local T)(oC)*/
(PID.TID 0000.0001)                 1.234567000000000E+05
(PID.TID 0000.0001)     ;
(PID.TID 0000.0001) salt_EvPrRn = /* Salin. of Evap/Prec/R (UNSET=use local S)(g/kg)*/
(PID.TID 0000.0001)                 0.000000000000000E+00
(PID.TID 0000.0001)     ;
(PID.TID 0000.0001) selectAddFluid = /* option for mass source/sink of fluid (=0: off) */
(PID.TID 0000.0001)                       0
(PID.TID 0000.0001)     ;
(PID.TID 0000.0001) temp_addMass = /* Temp. of addMass array (UNSET=use local T)(oC)*/
(PID.TID 0000.0001)                 1.234567000000000E+05
(PID.TID 0000.0001)     ;
(PID.TID 0000.0001) salt_addMass = /* Salin. of addMass array (UNSET=use local S)(g/kg)*/
(PID.TID 0000.0001)                 0.000000000000000E+00
(PID.TID 0000.0001)     ;
(PID.TID 0000.0001) convertFW2Salt = /* convert F.W. Flux to Salt Flux (-1=use local S)(g/kg)*/
(PID.TID 0000.0001)                -1.000000000000000E+00
(PID.TID 0000.0001)     ;
(PID.TID 0000.0001) use3Dsolver = /* use 3-D pressure solver on/off flag */
(PID.TID 0000.0001)                   F
(PID.TID 0000.0001)     ;
(PID.TID 0000.0001) nonHydrostatic =  /* Non-Hydrostatic on/off flag */
(PID.TID 0000.0001)                   F
(PID.TID 0000.0001)     ;
(PID.TID 0000.0001) nh_Am2 = /* Non-Hydrostatic terms scaling factor */
(PID.TID 0000.0001)                 1.000000000000000E+00
(PID.TID 0000.0001)     ;
(PID.TID 0000.0001) implicitNHPress = /* Non-Hyd Pressure implicit factor (0-1)*/
(PID.TID 0000.0001)                 1.000000000000000E+00
(PID.TID 0000.0001)     ;
(PID.TID 0000.0001) selectNHfreeSurf = /* Non-Hyd (free-)Surface option */
(PID.TID 0000.0001)                       0
(PID.TID 0000.0001)     ;
(PID.TID 0000.0001) quasiHydrostatic = /* Quasi-Hydrostatic on/off flag */
(PID.TID 0000.0001)                   F
(PID.TID 0000.0001)     ;
(PID.TID 0000.0001) calc_wVelocity = /* vertical velocity calculation on/off flag */
(PID.TID 0000.0001)                   T
(PID.TID 0000.0001)     ;
(PID.TID 0000.0001) momStepping =  /* Momentum equation on/off flag */
(PID.TID 0000.0001)                   T
(PID.TID 0000.0001)     ;
(PID.TID 0000.0001) vectorInvariantMomentum= /* Vector-Invariant Momentum on/off */
(PID.TID 0000.0001)                   F
(PID.TID 0000.0001)     ;
(PID.TID 0000.0001) momAdvection =  /* Momentum advection on/off flag */
(PID.TID 0000.0001)                   T
(PID.TID 0000.0001)     ;
(PID.TID 0000.0001) momViscosity =  /* Momentum viscosity on/off flag */
(PID.TID 0000.0001)                   T
(PID.TID 0000.0001)     ;
(PID.TID 0000.0001) momImplVertAdv= /* Momentum implicit vert. advection on/off*/
(PID.TID 0000.0001)                   F
(PID.TID 0000.0001)     ;
(PID.TID 0000.0001) implicitViscosity = /* Implicit viscosity on/off flag */
(PID.TID 0000.0001)                   F
(PID.TID 0000.0001)     ;
(PID.TID 0000.0001) selectImplicitDrag= /* Implicit bot Drag options (0,1,2)*/
(PID.TID 0000.0001)                       0
(PID.TID 0000.0001)     0= Expl. ; 1= Impl. on provis. Vel ; 2= Fully Impl (with surf.P)
(PID.TID 0000.0001)     ;
(PID.TID 0000.0001) metricTerms =  /* metric-Terms on/off flag */
(PID.TID 0000.0001)                   T
(PID.TID 0000.0001)     ;
(PID.TID 0000.0001) useNHMTerms = /* Non-Hydrostatic Metric-Terms on/off */
(PID.TID 0000.0001)                   F
(PID.TID 0000.0001)     ;
(PID.TID 0000.0001) selectCoriMap = /* Coriolis Map options (0,1,2,3)*/
(PID.TID 0000.0001)                       2
(PID.TID 0000.0001)     0= f-Plane ; 1= Beta-Plane ; 2= Spherical ; 3= read from file
(PID.TID 0000.0001)     ;
(PID.TID 0000.0001) use3dCoriolis = /* 3-D Coriolis on/off flag */
(PID.TID 0000.0001)                   F
(PID.TID 0000.0001)     ;
(PID.TID 0000.0001) useCoriolis =  /* Coriolis on/off flag */
(PID.TID 0000.0001)                   T
(PID.TID 0000.0001)     ;
(PID.TID 0000.0001) useCDscheme =  /* CD scheme on/off flag */
(PID.TID 0000.0001)                   T
(PID.TID 0000.0001)     ;
(PID.TID 0000.0001) selectCoriScheme= /* Scheme selector for Coriolis-Term */
(PID.TID 0000.0001)                       0
(PID.TID 0000.0001)    = 0 : original discretization (simple averaging, no hFac)
(PID.TID 0000.0001)    = 1 : Wet-point averaging (Jamar & Ozer 1986)
(PID.TID 0000.0001)    = 2 : energy conserving scheme (no hFac weight)
(PID.TID 0000.0001)    = 3 : energy conserving scheme using Wet-point averaging
(PID.TID 0000.0001)     ;
(PID.TID 0000.0001) momForcing =  /* Momentum forcing on/off flag */
(PID.TID 0000.0001)                   T
(PID.TID 0000.0001)     ;
(PID.TID 0000.0001) momTidalForcing = /* Momentum Tidal forcing on/off flag */
(PID.TID 0000.0001)                   T
(PID.TID 0000.0001)     ;
(PID.TID 0000.0001) momPressureForcing =  /* Momentum pressure term on/off flag */
(PID.TID 0000.0001)                   T
(PID.TID 0000.0001)     ;
(PID.TID 0000.0001) implicitIntGravWave= /* Implicit Internal Gravity Wave flag */
(PID.TID 0000.0001)                   F
(PID.TID 0000.0001)     ;
(PID.TID 0000.0001) staggerTimeStep =    /* Stagger time stepping on/off flag */
(PID.TID 0000.0001)                   F
(PID.TID 0000.0001)     ;
(PID.TID 0000.0001) doResetHFactors = /* reset thickness factors @ each time-step */
(PID.TID 0000.0001)                   F
(PID.TID 0000.0001)     ;
(PID.TID 0000.0001) multiDimAdvection =  /* enable/disable Multi-Dim Advection */
(PID.TID 0000.0001)                   T
(PID.TID 0000.0001)     ;
(PID.TID 0000.0001) useMultiDimAdvec =   /* Multi-Dim Advection is/is-not used */
(PID.TID 0000.0001)                   F
(PID.TID 0000.0001)     ;
(PID.TID 0000.0001) implicitDiffusion = /* Implicit Diffusion on/off flag */
(PID.TID 0000.0001)                   T
(PID.TID 0000.0001)     ;
(PID.TID 0000.0001) tempStepping =  /* Temperature equation on/off flag */
(PID.TID 0000.0001)                   T
(PID.TID 0000.0001)     ;
(PID.TID 0000.0001) tempAdvection = /* Temperature advection on/off flag */
(PID.TID 0000.0001)                   T
(PID.TID 0000.0001)     ;
(PID.TID 0000.0001) tempImplVertAdv = /* Temp. implicit vert. advection on/off */
(PID.TID 0000.0001)                   F
(PID.TID 0000.0001)     ;
(PID.TID 0000.0001) tempForcing  =  /* Temperature forcing on/off flag */
(PID.TID 0000.0001)                   T
(PID.TID 0000.0001)     ;
(PID.TID 0000.0001) doThetaClimRelax = /* apply SST relaxation on/off flag */
(PID.TID 0000.0001)                   F
(PID.TID 0000.0001)     ;
(PID.TID 0000.0001) tempIsActiveTr = /* Temp. is a dynamically Active Tracer */
(PID.TID 0000.0001)                   T
(PID.TID 0000.0001)     ;
(PID.TID 0000.0001) saltStepping =  /* Salinity equation on/off flag */
(PID.TID 0000.0001)                   T
(PID.TID 0000.0001)     ;
(PID.TID 0000.0001) saltAdvection = /* Salinity advection on/off flag */
(PID.TID 0000.0001)                   T
(PID.TID 0000.0001)     ;
(PID.TID 0000.0001) saltImplVertAdv = /* Sali. implicit vert. advection on/off */
(PID.TID 0000.0001)                   F
(PID.TID 0000.0001)     ;
(PID.TID 0000.0001) saltForcing  =  /* Salinity forcing on/off flag */
(PID.TID 0000.0001)                   T
(PID.TID 0000.0001)     ;
(PID.TID 0000.0001) doSaltClimRelax = /* apply SSS relaxation on/off flag */
(PID.TID 0000.0001)                   F
(PID.TID 0000.0001)     ;
(PID.TID 0000.0001) saltIsActiveTr = /* Salt  is a dynamically Active Tracer */
(PID.TID 0000.0001)                   T
(PID.TID 0000.0001)     ;
(PID.TID 0000.0001)  readBinaryPrec = /* Precision used for reading binary files */
(PID.TID 0000.0001)                      32
(PID.TID 0000.0001)     ;
(PID.TID 0000.0001) writeBinaryPrec = /* Precision used for writing binary files */
(PID.TID 0000.0001)                      32
(PID.TID 0000.0001)     ;
(PID.TID 0000.0001)  rwSuffixType =   /* select format of mds file suffix */
(PID.TID 0000.0001)                       0
(PID.TID 0000.0001)    = 0 : myIter (I10.10) ;   = 1 : 100*myTime (100th sec) ;
(PID.TID 0000.0001)    = 2 : myTime (seconds);   = 3 : myTime/360 (10th of hr);
(PID.TID 0000.0001)    = 4 : myTime/3600 (hours)
(PID.TID 0000.0001)     ;
(PID.TID 0000.0001)  globalFiles = /* write "global" (=not per tile) files */
(PID.TID 0000.0001)                   F
(PID.TID 0000.0001)     ;
(PID.TID 0000.0001)  useSingleCpuIO = /* only master MPI process does I/O */
(PID.TID 0000.0001)                   T
(PID.TID 0000.0001)     ;
(PID.TID 0000.0001)  useSingleCpuInput = /* only master process reads input */
(PID.TID 0000.0001)                   T
(PID.TID 0000.0001)     ;
(PID.TID 0000.0001) /* debLev[*]  : level of debug & auxiliary message printing */
(PID.TID 0000.0001) debLevZero =  0 ; /* level of disabled aux. msg printing */
(PID.TID 0000.0001)    debLevA =  1 ; /* level of minimum  aux. msg printing */
(PID.TID 0000.0001)    debLevB =  2 ; /* level of low aux. print (report read-file opening)*/
(PID.TID 0000.0001)    debLevC =  3 ; /* level of moderate debug prt (most pkgs debug msg) */
(PID.TID 0000.0001)    debLevD =  4 ; /* level of enhanced debug prt (add DEBUG_STATS prt) */
(PID.TID 0000.0001)    debLevE =  5 ; /* level of extensive debug printing */
(PID.TID 0000.0001) debugLevel =  /* select debug printing level */
(PID.TID 0000.0001)                       5
(PID.TID 0000.0001)     ;
(PID.TID 0000.0001)  plotLevel =  /* select PLOT_FIELD printing level */
(PID.TID 0000.0001)                       5
(PID.TID 0000.0001)     ;
(PID.TID 0000.0001) //
(PID.TID 0000.0001) // Elliptic solver(s) paramters ( PARM02 in namelist )
(PID.TID 0000.0001) //
(PID.TID 0000.0001) cg2dMaxIters =   /* Upper limit on 2d con. grad iterations  */
(PID.TID 0000.0001)                     500
(PID.TID 0000.0001)     ;
(PID.TID 0000.0001) cg2dMinItersNSA =   /* Minimum number of iterations of 2d con. grad solver  */
(PID.TID 0000.0001)                       0
(PID.TID 0000.0001)     ;
(PID.TID 0000.0001) cg2dUseMinResSol= /* use cg2d last-iter(=0) / min-resid.(=1) solution */
(PID.TID 0000.0001)                       0
(PID.TID 0000.0001)     ;
(PID.TID 0000.0001) cg2dTargetResidual =   /* 2d con. grad target residual  */
(PID.TID 0000.0001)                 1.000000000000000E-13
(PID.TID 0000.0001)     ;
(PID.TID 0000.0001) cg2dTargetResWunit =   /* CG2d target residual [W units] */
(PID.TID 0000.0001)                -1.000000000000000E+00
(PID.TID 0000.0001)     ;
(PID.TID 0000.0001) cg2dPreCondFreq =   /* Freq. for updating cg2d preconditioner */
(PID.TID 0000.0001)                       1
(PID.TID 0000.0001)     ;
(PID.TID 0000.0001) useSRCGSolver =  /* use single reduction CG solver(s) */
(PID.TID 0000.0001)                   F
(PID.TID 0000.0001)     ;
(PID.TID 0000.0001) useNSACGSolver =  /* use not-self-adjoint CG solver */
(PID.TID 0000.0001)                   F
(PID.TID 0000.0001)     ;
(PID.TID 0000.0001) printResidualFreq = /* Freq. for printing CG residual */
(PID.TID 0000.0001)                       1
(PID.TID 0000.0001)     ;
(PID.TID 0000.0001) //
(PID.TID 0000.0001) // Time stepping paramters ( PARM03 in namelist )
(PID.TID 0000.0001) //
(PID.TID 0000.0001) deltaTMom =   /* Momentum equation timestep ( s ) */
(PID.TID 0000.0001)                 1.800000000000000E+03
(PID.TID 0000.0001)     ;
(PID.TID 0000.0001) deltaTFreeSurf = /* FreeSurface equation timestep ( s ) */
(PID.TID 0000.0001)                 8.640000000000000E+04
(PID.TID 0000.0001)     ;
(PID.TID 0000.0001) dTtracerLev =  /* Tracer equation timestep ( s ) */
(PID.TID 0000.0001)    15 @  8.640000000000000E+04              /* K =  1: 15 */
(PID.TID 0000.0001)     ;
(PID.TID 0000.0001) deltaTClock  =   /* Model clock timestep ( s ) */
(PID.TID 0000.0001)                 8.640000000000000E+04
(PID.TID 0000.0001)     ;
(PID.TID 0000.0001) cAdjFreq =   /* Convective adjustment interval ( s ) */
(PID.TID 0000.0001)                 0.000000000000000E+00
(PID.TID 0000.0001)     ;
(PID.TID 0000.0001) momForcingOutAB = /* =1: take Momentum Forcing out of Adams-Bash. stepping */
(PID.TID 0000.0001)                       0
(PID.TID 0000.0001)     ;
(PID.TID 0000.0001) tracForcingOutAB = /* =1: take T,S,pTr Forcing out of Adams-Bash. stepping */
(PID.TID 0000.0001)                       0
(PID.TID 0000.0001)     ;
(PID.TID 0000.0001) momDissip_In_AB = /* put Dissipation Tendency in Adams-Bash. stepping */
(PID.TID 0000.0001)                   T
(PID.TID 0000.0001)     ;
(PID.TID 0000.0001) doAB_onGtGs = /* apply AB on Tendencies (rather than on T,S)*/
(PID.TID 0000.0001)                   T
(PID.TID 0000.0001)     ;
(PID.TID 0000.0001) abEps =   /* Adams-Bashforth-2 stabilizing weight */
(PID.TID 0000.0001)                 1.000000000000000E-01
(PID.TID 0000.0001)     ;
(PID.TID 0000.0001) applyExchUV_early = /* Apply EXCH to U,V earlier in time-step */
(PID.TID 0000.0001)                   F
(PID.TID 0000.0001)     ;
(PID.TID 0000.0001) tauCD =   /* CD coupling time-scale ( s ) */
(PID.TID 0000.0001)                 3.214280000000000E+05
(PID.TID 0000.0001)     ;
(PID.TID 0000.0001) rCD =   /* Normalised CD coupling parameter */
(PID.TID 0000.0001)                 9.943999900444267E-01
(PID.TID 0000.0001)     ;
(PID.TID 0000.0001) epsAB_CD = /* AB-2 stabilizing weight for CD-scheme*/
(PID.TID 0000.0001)                 1.000000000000000E-01
(PID.TID 0000.0001)     ;
(PID.TID 0000.0001) pickupStrictlyMatch= /* stop if pickup do not strictly match */
(PID.TID 0000.0001)                   T
(PID.TID 0000.0001)     ;
(PID.TID 0000.0001) nIter0   =   /* Run starting timestep number */
(PID.TID 0000.0001)                       0
(PID.TID 0000.0001)     ;
(PID.TID 0000.0001) nTimeSteps = /* Number of timesteps */
(PID.TID 0000.0001)                     100
(PID.TID 0000.0001)     ;
(PID.TID 0000.0001) nEndIter =   /* Run ending timestep number */
(PID.TID 0000.0001)                     100
(PID.TID 0000.0001)     ;
(PID.TID 0000.0001) baseTime =   /* Model base time ( s ) */
(PID.TID 0000.0001)                 0.000000000000000E+00
(PID.TID 0000.0001)     ;
(PID.TID 0000.0001) startTime =  /* Run start time ( s ) */
(PID.TID 0000.0001)                 0.000000000000000E+00
(PID.TID 0000.0001)     ;
(PID.TID 0000.0001) endTime  =   /* Integration ending time ( s ) */
(PID.TID 0000.0001)                 8.640000000000000E+06
(PID.TID 0000.0001)     ;
(PID.TID 0000.0001) pChkPtFreq = /* Permanent restart/pickup file interval ( s ) */
(PID.TID 0000.0001)                 8.640000000000000E+05
(PID.TID 0000.0001)     ;
(PID.TID 0000.0001) chkPtFreq  = /* Rolling restart/pickup file interval ( s ) */
(PID.TID 0000.0001)                 0.000000000000000E+00
(PID.TID 0000.0001)     ;
(PID.TID 0000.0001) pickup_write_mdsio =   /* Model IO flag. */
(PID.TID 0000.0001)                   T
(PID.TID 0000.0001)     ;
(PID.TID 0000.0001) pickup_read_mdsio =   /* Model IO flag. */
(PID.TID 0000.0001)                   T
(PID.TID 0000.0001)     ;
(PID.TID 0000.0001) pickup_write_mnc =   /* Model IO flag. */
(PID.TID 0000.0001)                   F
(PID.TID 0000.0001)     ;
(PID.TID 0000.0001) pickup_read_mnc =   /* Model IO flag. */
(PID.TID 0000.0001)                   F
(PID.TID 0000.0001)     ;
(PID.TID 0000.0001) writePickupAtEnd =   /* Model IO flag. */
(PID.TID 0000.0001)                   T
(PID.TID 0000.0001)     ;
(PID.TID 0000.0001) dumpFreq =   /* Model state write out interval ( s ). */
(PID.TID 0000.0001)                 8.640000000000000E+05
(PID.TID 0000.0001)     ;
(PID.TID 0000.0001) dumpInitAndLast= /* write out Initial & Last iter. model state */
(PID.TID 0000.0001)                   T
(PID.TID 0000.0001)     ;
(PID.TID 0000.0001) snapshot_mdsio =   /* Model IO flag. */
(PID.TID 0000.0001)                   T
(PID.TID 0000.0001)     ;
(PID.TID 0000.0001) snapshot_mnc =   /* Model IO flag. */
(PID.TID 0000.0001)                   F
(PID.TID 0000.0001)     ;
(PID.TID 0000.0001) monitorFreq =   /* Monitor output interval ( s ). */
(PID.TID 0000.0001)                 1.000000000000000E+00
(PID.TID 0000.0001)     ;
(PID.TID 0000.0001) monitorSelect = /* select group of variables to monitor */
(PID.TID 0000.0001)                       3
(PID.TID 0000.0001)     ;
(PID.TID 0000.0001) monitor_stdio =   /* Model IO flag. */
(PID.TID 0000.0001)                   T
(PID.TID 0000.0001)     ;
(PID.TID 0000.0001) monitor_mnc =   /* Model IO flag. */
(PID.TID 0000.0001)                   F
(PID.TID 0000.0001)     ;
(PID.TID 0000.0001) externForcingPeriod =   /* forcing period (s) */
(PID.TID 0000.0001)                 2.592000000000000E+06
(PID.TID 0000.0001)     ;
(PID.TID 0000.0001) externForcingCycle =   /* period of the cyle (s). */
(PID.TID 0000.0001)                 3.110400000000000E+07
(PID.TID 0000.0001)     ;
(PID.TID 0000.0001) tauThetaClimRelax =   /* relaxation time scale (s) */
(PID.TID 0000.0001)                 0.000000000000000E+00
(PID.TID 0000.0001)     ;
(PID.TID 0000.0001) tauSaltClimRelax =   /* relaxation time scale (s) */
(PID.TID 0000.0001)                 0.000000000000000E+00
(PID.TID 0000.0001)     ;
(PID.TID 0000.0001) latBandClimRelax =   /* max. Lat. where relaxation */
(PID.TID 0000.0001)                 1.800000000000000E+02
(PID.TID 0000.0001)     ;
(PID.TID 0000.0001) //
(PID.TID 0000.0001) // Gridding paramters ( PARM04 in namelist )
(PID.TID 0000.0001) //
(PID.TID 0000.0001) usingCartesianGrid = /* Cartesian coordinates flag ( True/False ) */
(PID.TID 0000.0001)                   F
(PID.TID 0000.0001)     ;
(PID.TID 0000.0001) usingCylindricalGrid = /* Cylindrical coordinates flag ( True/False ) */
(PID.TID 0000.0001)                   F
(PID.TID 0000.0001)     ;
(PID.TID 0000.0001) usingSphericalPolarGrid = /* Spherical coordinates flag ( True/False ) */
(PID.TID 0000.0001)                   T
(PID.TID 0000.0001)     ;
(PID.TID 0000.0001) usingCurvilinearGrid = /* Curvilinear coordinates flag ( True/False ) */
(PID.TID 0000.0001)                   F
(PID.TID 0000.0001)     ;
(PID.TID 0000.0001) useMin4hFacEdges = /* set hFacW,S as minimum of adjacent hFacC factor */
(PID.TID 0000.0001)                   F
(PID.TID 0000.0001)     ;
(PID.TID 0000.0001) interViscAr_pCell = /* account for partial-cell in interior vert. viscosity */
(PID.TID 0000.0001)                   F
(PID.TID 0000.0001)     ;
(PID.TID 0000.0001) interDiffKr_pCell = /* account for partial-cell in interior vert. diffusion */
(PID.TID 0000.0001)                   F
(PID.TID 0000.0001)     ;
(PID.TID 0000.0001) pCellMix_select = /* option to enhance mixing near surface & bottom */
(PID.TID 0000.0001)                       0
(PID.TID 0000.0001)     ;
(PID.TID 0000.0001) selectSigmaCoord = /* Hybrid-Sigma Vert. Coordinate option */
(PID.TID 0000.0001)                       0
(PID.TID 0000.0001)     ;
(PID.TID 0000.0001) rSigmaBnd = /* r/sigma transition ( units of r ==  m ) */
(PID.TID 0000.0001)                 1.234567000000000E+05
(PID.TID 0000.0001)     ;
(PID.TID 0000.0001) rkSign =   /* index orientation relative to vertical coordinate */
(PID.TID 0000.0001)                -1.000000000000000E+00
(PID.TID 0000.0001)     ;
(PID.TID 0000.0001) gravitySign = /* gravity orientation relative to vertical coordinate */
(PID.TID 0000.0001)                -1.000000000000000E+00
(PID.TID 0000.0001)     ;
(PID.TID 0000.0001) seaLev_Z =  /* reference height of sea-level [m] */
(PID.TID 0000.0001)                 0.000000000000000E+00
(PID.TID 0000.0001)     ;
(PID.TID 0000.0001) top_Pres =  /* reference pressure at the top [Pa] */
(PID.TID 0000.0001)                 0.000000000000000E+00
(PID.TID 0000.0001)     ;
(PID.TID 0000.0001) mass2rUnit = /* convert mass per unit area [kg/m2] to r-units [m] */
(PID.TID 0000.0001)                 9.661835748792270E-04
(PID.TID 0000.0001)     ;
(PID.TID 0000.0001) rUnit2mass = /* convert r-units [m] to mass per unit area [kg/m2] */
(PID.TID 0000.0001)                 1.035000000000000E+03
(PID.TID 0000.0001)     ;
(PID.TID 0000.0001) drC =   /* C spacing ( units of r ) */
(PID.TID 0000.0001)                 2.500000000000000E+01,      /* K =  1 */
(PID.TID 0000.0001)                 6.000000000000000E+01,      /* K =  2 */
(PID.TID 0000.0001)                 8.500000000000000E+01,      /* K =  3 */
(PID.TID 0000.0001)                 1.200000000000000E+02,      /* K =  4 */
(PID.TID 0000.0001)                 1.650000000000000E+02,      /* K =  5 */
(PID.TID 0000.0001)                 2.150000000000000E+02,      /* K =  6 */
(PID.TID 0000.0001)                 2.650000000000000E+02,      /* K =  7 */
(PID.TID 0000.0001)                 3.150000000000000E+02,      /* K =  8 */
(PID.TID 0000.0001)                 3.650000000000000E+02,      /* K =  9 */
(PID.TID 0000.0001)                 4.150000000000000E+02,      /* K = 10 */
(PID.TID 0000.0001)                 4.650000000000000E+02,      /* K = 11 */
(PID.TID 0000.0001)                 5.150000000000000E+02,      /* K = 12 */
(PID.TID 0000.0001)                 5.650000000000000E+02,      /* K = 13 */
(PID.TID 0000.0001)                 6.150000000000000E+02,      /* K = 14 */
(PID.TID 0000.0001)                 6.650000000000000E+02,      /* K = 15 */
(PID.TID 0000.0001)                 3.450000000000000E+02       /* K = 16 */
(PID.TID 0000.0001)     ;
(PID.TID 0000.0001) drF =   /* W spacing ( units of r ) */
(PID.TID 0000.0001)                 5.000000000000000E+01,      /* K =  1 */
(PID.TID 0000.0001)                 7.000000000000000E+01,      /* K =  2 */
(PID.TID 0000.0001)                 1.000000000000000E+02,      /* K =  3 */
(PID.TID 0000.0001)                 1.400000000000000E+02,      /* K =  4 */
(PID.TID 0000.0001)                 1.900000000000000E+02,      /* K =  5 */
(PID.TID 0000.0001)                 2.400000000000000E+02,      /* K =  6 */
(PID.TID 0000.0001)                 2.900000000000000E+02,      /* K =  7 */
(PID.TID 0000.0001)                 3.400000000000000E+02,      /* K =  8 */
(PID.TID 0000.0001)                 3.900000000000000E+02,      /* K =  9 */
(PID.TID 0000.0001)                 4.400000000000000E+02,      /* K = 10 */
(PID.TID 0000.0001)                 4.900000000000000E+02,      /* K = 11 */
(PID.TID 0000.0001)                 5.400000000000000E+02,      /* K = 12 */
(PID.TID 0000.0001)                 5.900000000000000E+02,      /* K = 13 */
(PID.TID 0000.0001)                 6.400000000000000E+02,      /* K = 14 */
(PID.TID 0000.0001)                 6.900000000000000E+02       /* K = 15 */
(PID.TID 0000.0001)     ;
(PID.TID 0000.0001) delX = /* U spacing ( m - cartesian, degrees - spherical ) */
(PID.TID 0000.0001)    90 @  4.000000000000000E+00              /* I =  1: 90 */
(PID.TID 0000.0001)     ;
(PID.TID 0000.0001) delY = /* V spacing ( m - cartesian, degrees - spherical ) */
(PID.TID 0000.0001)    40 @  4.000000000000000E+00              /* J =  1: 40 */
(PID.TID 0000.0001)     ;
(PID.TID 0000.0001) xgOrigin = /* X-axis origin of West  edge (cartesian: m, lat-lon: deg) */
(PID.TID 0000.0001)                 0.000000000000000E+00
(PID.TID 0000.0001)     ;
(PID.TID 0000.0001) ygOrigin = /* Y-axis origin of South edge (cartesian: m, lat-lon: deg) */
(PID.TID 0000.0001)                -8.000000000000000E+01
(PID.TID 0000.0001)     ;
(PID.TID 0000.0001) rSphere =  /* Radius ( ignored - cartesian, m - spherical ) */
(PID.TID 0000.0001)                 6.370000000000000E+06
(PID.TID 0000.0001)     ;
(PID.TID 0000.0001) deepAtmosphere = /* Deep/Shallow Atmosphere flag (True/False) */
(PID.TID 0000.0001)                   F
(PID.TID 0000.0001)     ;
(PID.TID 0000.0001) xC =  /* xC(:,1,:,1) : P-point X coord ( deg. or m if cartesian) */
(PID.TID 0000.0001)                 2.000000000000000E+00,      /* I =  1 */
(PID.TID 0000.0001)                 6.000000000000000E+00,      /* I =  2 */
(PID.TID 0000.0001)                 1.000000000000000E+01,      /* I =  3 */
(PID.TID 0000.0001)      . . .
(PID.TID 0000.0001)                 8.200000000000000E+01,      /* I = 21 */
(PID.TID 0000.0001)                 8.600000000000000E+01,      /* I = 22 */
(PID.TID 0000.0001)                 9.000000000000000E+01,      /* I = 23 */
(PID.TID 0000.0001)                 9.400000000000000E+01,      /* I = 24 */
(PID.TID 0000.0001)                 9.800000000000000E+01,      /* I = 25 */
(PID.TID 0000.0001)                 1.020000000000000E+02,      /* I = 26 */
(PID.TID 0000.0001)      . . .
(PID.TID 0000.0001)                 1.700000000000000E+02,      /* I = 43 */
(PID.TID 0000.0001)                 1.740000000000000E+02,      /* I = 44 */
(PID.TID 0000.0001)                 1.780000000000000E+02,      /* I = 45 */
(PID.TID 0000.0001)                 1.820000000000000E+02,      /* I = 46 */
(PID.TID 0000.0001)                 1.860000000000000E+02,      /* I = 47 */
(PID.TID 0000.0001)                 1.900000000000000E+02,      /* I = 48 */
(PID.TID 0000.0001)      . . .
(PID.TID 0000.0001)                 2.580000000000000E+02,      /* I = 65 */
(PID.TID 0000.0001)                 2.620000000000000E+02,      /* I = 66 */
(PID.TID 0000.0001)                 2.660000000000000E+02,      /* I = 67 */
(PID.TID 0000.0001)                 2.700000000000000E+02,      /* I = 68 */
(PID.TID 0000.0001)                 2.740000000000000E+02,      /* I = 69 */
(PID.TID 0000.0001)                 2.780000000000000E+02,      /* I = 70 */
(PID.TID 0000.0001)      . . .
(PID.TID 0000.0001)                 3.500000000000000E+02,      /* I = 88 */
(PID.TID 0000.0001)                 3.540000000000000E+02,      /* I = 89 */
(PID.TID 0000.0001)                 3.580000000000000E+02       /* I = 90 */
(PID.TID 0000.0001)     ;
(PID.TID 0000.0001) yC =  /* yC(1,:,1,:) : P-point Y coord ( deg. or m if cartesian) */
(PID.TID 0000.0001)                -7.800000000000000E+01,      /* J =  1 */
(PID.TID 0000.0001)                -7.400000000000000E+01,      /* J =  2 */
(PID.TID 0000.0001)                -7.000000000000000E+01,      /* J =  3 */
(PID.TID 0000.0001)                -6.600000000000000E+01,      /* J =  4 */
(PID.TID 0000.0001)                -6.200000000000000E+01,      /* J =  5 */
(PID.TID 0000.0001)                -5.800000000000000E+01,      /* J =  6 */
(PID.TID 0000.0001)                -5.400000000000000E+01,      /* J =  7 */
(PID.TID 0000.0001)                -5.000000000000000E+01,      /* J =  8 */
(PID.TID 0000.0001)                -4.600000000000000E+01,      /* J =  9 */
(PID.TID 0000.0001)                -4.200000000000000E+01,      /* J = 10 */
(PID.TID 0000.0001)                -3.800000000000000E+01,      /* J = 11 */
(PID.TID 0000.0001)                -3.400000000000000E+01,      /* J = 12 */
(PID.TID 0000.0001)                -3.000000000000000E+01,      /* J = 13 */
(PID.TID 0000.0001)                -2.600000000000000E+01,      /* J = 14 */
(PID.TID 0000.0001)                -2.200000000000000E+01,      /* J = 15 */
(PID.TID 0000.0001)                -1.800000000000000E+01,      /* J = 16 */
(PID.TID 0000.0001)                -1.400000000000000E+01,      /* J = 17 */
(PID.TID 0000.0001)                -1.000000000000000E+01,      /* J = 18 */
(PID.TID 0000.0001)                -6.000000000000000E+00,      /* J = 19 */
(PID.TID 0000.0001)                -2.000000000000000E+00,      /* J = 20 */
(PID.TID 0000.0001)                 2.000000000000000E+00,      /* J = 21 */
(PID.TID 0000.0001)                 6.000000000000000E+00,      /* J = 22 */
(PID.TID 0000.0001)                 1.000000000000000E+01,      /* J = 23 */
(PID.TID 0000.0001)                 1.400000000000000E+01,      /* J = 24 */
(PID.TID 0000.0001)                 1.800000000000000E+01,      /* J = 25 */
(PID.TID 0000.0001)                 2.200000000000000E+01,      /* J = 26 */
(PID.TID 0000.0001)                 2.600000000000000E+01,      /* J = 27 */
(PID.TID 0000.0001)                 3.000000000000000E+01,      /* J = 28 */
(PID.TID 0000.0001)                 3.400000000000000E+01,      /* J = 29 */
(PID.TID 0000.0001)                 3.800000000000000E+01,      /* J = 30 */
(PID.TID 0000.0001)                 4.200000000000000E+01,      /* J = 31 */
(PID.TID 0000.0001)                 4.600000000000000E+01,      /* J = 32 */
(PID.TID 0000.0001)                 5.000000000000000E+01,      /* J = 33 */
(PID.TID 0000.0001)                 5.400000000000000E+01,      /* J = 34 */
(PID.TID 0000.0001)                 5.800000000000000E+01,      /* J = 35 */
(PID.TID 0000.0001)                 6.200000000000000E+01,      /* J = 36 */
(PID.TID 0000.0001)                 6.600000000000000E+01,      /* J = 37 */
(PID.TID 0000.0001)                 7.000000000000000E+01,      /* J = 38 */
(PID.TID 0000.0001)                 7.400000000000000E+01,      /* J = 39 */
(PID.TID 0000.0001)                 7.800000000000000E+01       /* J = 40 */
(PID.TID 0000.0001)     ;
(PID.TID 0000.0001) rcoord = /* P-point R coordinate (  units of r ) */
(PID.TID 0000.0001)                -2.500000000000000E+01,      /* K =  1 */
(PID.TID 0000.0001)                -8.500000000000000E+01,      /* K =  2 */
(PID.TID 0000.0001)                -1.700000000000000E+02,      /* K =  3 */
(PID.TID 0000.0001)                -2.900000000000000E+02,      /* K =  4 */
(PID.TID 0000.0001)                -4.550000000000000E+02,      /* K =  5 */
(PID.TID 0000.0001)                -6.700000000000000E+02,      /* K =  6 */
(PID.TID 0000.0001)                -9.350000000000000E+02,      /* K =  7 */
(PID.TID 0000.0001)                -1.250000000000000E+03,      /* K =  8 */
(PID.TID 0000.0001)                -1.615000000000000E+03,      /* K =  9 */
(PID.TID 0000.0001)                -2.030000000000000E+03,      /* K = 10 */
(PID.TID 0000.0001)                -2.495000000000000E+03,      /* K = 11 */
(PID.TID 0000.0001)                -3.010000000000000E+03,      /* K = 12 */
(PID.TID 0000.0001)                -3.575000000000000E+03,      /* K = 13 */
(PID.TID 0000.0001)                -4.190000000000000E+03,      /* K = 14 */
(PID.TID 0000.0001)                -4.855000000000000E+03       /* K = 15 */
(PID.TID 0000.0001)     ;
(PID.TID 0000.0001) rF =   /* W-Interf. R coordinate (  units of r ) */
(PID.TID 0000.0001)                 0.000000000000000E+00,      /* K =  1 */
(PID.TID 0000.0001)                -5.000000000000000E+01,      /* K =  2 */
(PID.TID 0000.0001)                -1.200000000000000E+02,      /* K =  3 */
(PID.TID 0000.0001)                -2.200000000000000E+02,      /* K =  4 */
(PID.TID 0000.0001)                -3.600000000000000E+02,      /* K =  5 */
(PID.TID 0000.0001)                -5.500000000000000E+02,      /* K =  6 */
(PID.TID 0000.0001)                -7.900000000000000E+02,      /* K =  7 */
(PID.TID 0000.0001)                -1.080000000000000E+03,      /* K =  8 */
(PID.TID 0000.0001)                -1.420000000000000E+03,      /* K =  9 */
(PID.TID 0000.0001)                -1.810000000000000E+03,      /* K = 10 */
(PID.TID 0000.0001)                -2.250000000000000E+03,      /* K = 11 */
(PID.TID 0000.0001)                -2.740000000000000E+03,      /* K = 12 */
(PID.TID 0000.0001)                -3.280000000000000E+03,      /* K = 13 */
(PID.TID 0000.0001)                -3.870000000000000E+03,      /* K = 14 */
(PID.TID 0000.0001)                -4.510000000000000E+03,      /* K = 15 */
(PID.TID 0000.0001)                -5.200000000000000E+03       /* K = 16 */
(PID.TID 0000.0001)     ;
(PID.TID 0000.0001) deepFacC = /* deep-model grid factor @ cell-Center (-) */
(PID.TID 0000.0001)    15 @  1.000000000000000E+00              /* K =  1: 15 */
(PID.TID 0000.0001)     ;
(PID.TID 0000.0001) deepFacF = /* deep-model grid factor @ W-Interface (-) */
(PID.TID 0000.0001)    16 @  1.000000000000000E+00              /* K =  1: 16 */
(PID.TID 0000.0001)     ;
(PID.TID 0000.0001) rVel2wUnit = /* convert units: rVel -> wSpeed (=1 if z-coord)*/
(PID.TID 0000.0001)    16 @  1.000000000000000E+00              /* K =  1: 16 */
(PID.TID 0000.0001)     ;
(PID.TID 0000.0001) wUnit2rVel = /* convert units: wSpeed -> rVel (=1 if z-coord)*/
(PID.TID 0000.0001)    16 @  1.000000000000000E+00              /* K =  1: 16 */
(PID.TID 0000.0001)     ;
(PID.TID 0000.0001) dBdrRef = /* Vertical grad. of reference buoyancy [(m/s/r)^2] */
(PID.TID 0000.0001)    15 @  0.000000000000000E+00              /* K =  1: 15 */
(PID.TID 0000.0001)     ;
(PID.TID 0000.0001) rotateGrid = /* use rotated grid ( True/False ) */
(PID.TID 0000.0001)                   F
(PID.TID 0000.0001)     ;
(PID.TID 0000.0001) phiEuler = /* Euler angle, rotation about original z-coordinate [rad] */
(PID.TID 0000.0001)                 0.000000000000000E+00
(PID.TID 0000.0001)     ;
(PID.TID 0000.0001) thetaEuler = /* Euler angle, rotation about new x-coordinate [rad] */
(PID.TID 0000.0001)                 0.000000000000000E+00
(PID.TID 0000.0001)     ;
(PID.TID 0000.0001) psiEuler = /* Euler angle, rotation about new z-coordinate [rad] */
(PID.TID 0000.0001)                 0.000000000000000E+00
(PID.TID 0000.0001)     ;
(PID.TID 0000.0001) dxF =  /* dxF(:,1,:,1) ( units: m ) */
(PID.TID 0000.0001)    90 @  9.246038586187513E+04              /* I =  1: 90 */
(PID.TID 0000.0001)     ;
(PID.TID 0000.0001) dxF =  /* dxF(1,:,1,:) ( units: m ) */
(PID.TID 0000.0001)                 9.246038586187513E+04,      /* J =  1 */
(PID.TID 0000.0001)                 1.225786591246834E+05,      /* J =  2 */
(PID.TID 0000.0001)                 1.520997414818001E+05,      /* J =  3 */
(PID.TID 0000.0001)                 1.808798091874300E+05,      /* J =  4 */
(PID.TID 0000.0001)                 2.087786486446736E+05,      /* J =  5 */
(PID.TID 0000.0001)                 2.356603395120765E+05,      /* J =  6 */
(PID.TID 0000.0001)                 2.613939168938713E+05,      /* J =  7 */
(PID.TID 0000.0001)                 2.858540093877838E+05,      /* J =  8 */
(PID.TID 0000.0001)                 3.089214498819034E+05,      /* J =  9 */
(PID.TID 0000.0001)                 3.304838561248741E+05,      /* J = 10 */
(PID.TID 0000.0001)                 3.504361782409254E+05,      /* J = 11 */
(PID.TID 0000.0001)                 3.686812105223082E+05,      /* J = 12 */
(PID.TID 0000.0001)                 3.851300650057323E+05,      /* J = 13 */
(PID.TID 0000.0001)                 3.997026045255871E+05,      /* J = 14 */
(PID.TID 0000.0001)                 4.123278331341585E+05,      /* J = 15 */
(PID.TID 0000.0001)                 4.229442419867491E+05,      /* J = 16 */
(PID.TID 0000.0001)                 4.315001090065870E+05,      /* J = 17 */
(PID.TID 0000.0001)                 4.379537508695838E+05,      /* J = 18 */
(PID.TID 0000.0001)                 4.422737260813012E+05,      /* J = 19 */
(PID.TID 0000.0001)     2 @  4.444389881567502E+05,             /* J = 20: 21 */
(PID.TID 0000.0001)                 4.422737260813012E+05,      /* J = 22 */
(PID.TID 0000.0001)                 4.379537508695838E+05,      /* J = 23 */
(PID.TID 0000.0001)                 4.315001090065870E+05,      /* J = 24 */
(PID.TID 0000.0001)                 4.229442419867491E+05,      /* J = 25 */
(PID.TID 0000.0001)                 4.123278331341585E+05,      /* J = 26 */
(PID.TID 0000.0001)                 3.997026045255871E+05,      /* J = 27 */
(PID.TID 0000.0001)                 3.851300650057323E+05,      /* J = 28 */
(PID.TID 0000.0001)                 3.686812105223082E+05,      /* J = 29 */
(PID.TID 0000.0001)                 3.504361782409254E+05,      /* J = 30 */
(PID.TID 0000.0001)                 3.304838561248741E+05,      /* J = 31 */
(PID.TID 0000.0001)                 3.089214498819034E+05,      /* J = 32 */
(PID.TID 0000.0001)                 2.858540093877838E+05,      /* J = 33 */
(PID.TID 0000.0001)                 2.613939168938713E+05,      /* J = 34 */
(PID.TID 0000.0001)                 2.356603395120765E+05,      /* J = 35 */
(PID.TID 0000.0001)                 2.087786486446736E+05,      /* J = 36 */
(PID.TID 0000.0001)                 1.808798091874300E+05,      /* J = 37 */
(PID.TID 0000.0001)                 1.520997414818001E+05,      /* J = 38 */
(PID.TID 0000.0001)                 1.225786591246834E+05,      /* J = 39 */
(PID.TID 0000.0001)                 9.246038586187513E+04       /* J = 40 */
(PID.TID 0000.0001)     ;
(PID.TID 0000.0001) dyF =  /* dyF(:,1,:,1) ( units: m ) */
(PID.TID 0000.0001)    90 @  4.447098934081552E+05              /* I =  1: 90 */
(PID.TID 0000.0001)     ;
(PID.TID 0000.0001) dyF =  /* dyF(1,:,1,:) ( units: m ) */
(PID.TID 0000.0001)    40 @  4.447098934081552E+05              /* J =  1: 40 */
(PID.TID 0000.0001)     ;
(PID.TID 0000.0001) dxG =  /* dxG(:,1,:,1) ( units: m ) */
(PID.TID 0000.0001)    90 @  7.722306258078101E+04              /* I =  1: 90 */
(PID.TID 0000.0001)     ;
(PID.TID 0000.0001) dxG =  /* dxG(1,:,1,:) ( units: m ) */
(PID.TID 0000.0001)                 7.722306258078101E+04,      /* J =  1 */
(PID.TID 0000.0001)                 1.075850604052271E+05,      /* J =  2 */
(PID.TID 0000.0001)                 1.374229146297914E+05,      /* J =  3 */
(PID.TID 0000.0001)                 1.665912582279823E+05,      /* J =  4 */
(PID.TID 0000.0001)                 1.949479859617814E+05,      /* J =  5 */
(PID.TID 0000.0001)                 2.223549467040777E+05,      /* J =  6 */
(PID.TID 0000.0001)                 2.486786164970726E+05,      /* J =  7 */
(PID.TID 0000.0001)                 2.737907490675810E+05,      /* J =  8 */
(PID.TID 0000.0001)                 2.975690006299821E+05,      /* J =  9 */
(PID.TID 0000.0001)                 3.198975259328452E+05,      /* J = 10 */
(PID.TID 0000.0001)                 3.406675426453503E+05,      /* J = 11 */
(PID.TID 0000.0001)                 3.597778613338690E+05,      /* J = 12 */
(PID.TID 0000.0001)                 3.771353784467131E+05,      /* J = 13 */
(PID.TID 0000.0001)                 3.926555299052806E+05,      /* J = 14 */
(PID.TID 0000.0001)                 4.062627030917454E+05,      /* J = 15 */
(PID.TID 0000.0001)                 4.178906052261313E+05,      /* J = 16 */
(PID.TID 0000.0001)                 4.274825863380723E+05,      /* J = 17 */
(PID.TID 0000.0001)                 4.349919152597734E+05,      /* J = 18 */
(PID.TID 0000.0001)                 4.403820072955634E+05,      /* J = 19 */
(PID.TID 0000.0001)                 4.436266024588540E+05,      /* J = 20 */
(PID.TID 0000.0001)                 4.447098934081552E+05,      /* J = 21 */
(PID.TID 0000.0001)                 4.436266024588540E+05,      /* J = 22 */
(PID.TID 0000.0001)                 4.403820072955634E+05,      /* J = 23 */
(PID.TID 0000.0001)                 4.349919152597734E+05,      /* J = 24 */
(PID.TID 0000.0001)                 4.274825863380723E+05,      /* J = 25 */
(PID.TID 0000.0001)                 4.178906052261313E+05,      /* J = 26 */
(PID.TID 0000.0001)                 4.062627030917454E+05,      /* J = 27 */
(PID.TID 0000.0001)                 3.926555299052806E+05,      /* J = 28 */
(PID.TID 0000.0001)                 3.771353784467131E+05,      /* J = 29 */
(PID.TID 0000.0001)                 3.597778613338690E+05,      /* J = 30 */
(PID.TID 0000.0001)                 3.406675426453503E+05,      /* J = 31 */
(PID.TID 0000.0001)                 3.198975259328452E+05,      /* J = 32 */
(PID.TID 0000.0001)                 2.975690006299821E+05,      /* J = 33 */
(PID.TID 0000.0001)                 2.737907490675810E+05,      /* J = 34 */
(PID.TID 0000.0001)                 2.486786164970726E+05,      /* J = 35 */
(PID.TID 0000.0001)                 2.223549467040777E+05,      /* J = 36 */
(PID.TID 0000.0001)                 1.949479859617814E+05,      /* J = 37 */
(PID.TID 0000.0001)                 1.665912582279823E+05,      /* J = 38 */
(PID.TID 0000.0001)                 1.374229146297914E+05,      /* J = 39 */
(PID.TID 0000.0001)                 1.075850604052271E+05       /* J = 40 */
(PID.TID 0000.0001)     ;
(PID.TID 0000.0001) dyG =  /* dyG(:,1,:,1) ( units: m ) */
(PID.TID 0000.0001)    90 @  4.447098934081552E+05              /* I =  1: 90 */
(PID.TID 0000.0001)     ;
(PID.TID 0000.0001) dyG =  /* dyG(1,:,1,:) ( units: m ) */
(PID.TID 0000.0001)    40 @  4.447098934081552E+05              /* J =  1: 40 */
(PID.TID 0000.0001)     ;
(PID.TID 0000.0001) dxC =  /* dxC(:,1,:,1) ( units: m ) */
(PID.TID 0000.0001)    90 @  9.246038586187513E+04              /* I =  1: 90 */
(PID.TID 0000.0001)     ;
(PID.TID 0000.0001) dxC =  /* dxC(1,:,1,:) ( units: m ) */
(PID.TID 0000.0001)                 9.246038586187513E+04,      /* J =  1 */
(PID.TID 0000.0001)                 1.225786591246834E+05,      /* J =  2 */
(PID.TID 0000.0001)                 1.520997414818001E+05,      /* J =  3 */
(PID.TID 0000.0001)                 1.808798091874300E+05,      /* J =  4 */
(PID.TID 0000.0001)                 2.087786486446736E+05,      /* J =  5 */
(PID.TID 0000.0001)                 2.356603395120765E+05,      /* J =  6 */
(PID.TID 0000.0001)                 2.613939168938713E+05,      /* J =  7 */
(PID.TID 0000.0001)                 2.858540093877838E+05,      /* J =  8 */
(PID.TID 0000.0001)                 3.089214498819034E+05,      /* J =  9 */
(PID.TID 0000.0001)                 3.304838561248741E+05,      /* J = 10 */
(PID.TID 0000.0001)                 3.504361782409254E+05,      /* J = 11 */
(PID.TID 0000.0001)                 3.686812105223082E+05,      /* J = 12 */
(PID.TID 0000.0001)                 3.851300650057323E+05,      /* J = 13 */
(PID.TID 0000.0001)                 3.997026045255871E+05,      /* J = 14 */
(PID.TID 0000.0001)                 4.123278331341585E+05,      /* J = 15 */
(PID.TID 0000.0001)                 4.229442419867491E+05,      /* J = 16 */
(PID.TID 0000.0001)                 4.315001090065870E+05,      /* J = 17 */
(PID.TID 0000.0001)                 4.379537508695838E+05,      /* J = 18 */
(PID.TID 0000.0001)                 4.422737260813012E+05,      /* J = 19 */
(PID.TID 0000.0001)     2 @  4.444389881567502E+05,             /* J = 20: 21 */
(PID.TID 0000.0001)                 4.422737260813012E+05,      /* J = 22 */
(PID.TID 0000.0001)                 4.379537508695838E+05,      /* J = 23 */
(PID.TID 0000.0001)                 4.315001090065870E+05,      /* J = 24 */
(PID.TID 0000.0001)                 4.229442419867491E+05,      /* J = 25 */
(PID.TID 0000.0001)                 4.123278331341585E+05,      /* J = 26 */
(PID.TID 0000.0001)                 3.997026045255871E+05,      /* J = 27 */
(PID.TID 0000.0001)                 3.851300650057323E+05,      /* J = 28 */
(PID.TID 0000.0001)                 3.686812105223082E+05,      /* J = 29 */
(PID.TID 0000.0001)                 3.504361782409254E+05,      /* J = 30 */
(PID.TID 0000.0001)                 3.304838561248741E+05,      /* J = 31 */
(PID.TID 0000.0001)                 3.089214498819034E+05,      /* J = 32 */
(PID.TID 0000.0001)                 2.858540093877838E+05,      /* J = 33 */
(PID.TID 0000.0001)                 2.613939168938713E+05,      /* J = 34 */
(PID.TID 0000.0001)                 2.356603395120765E+05,      /* J = 35 */
(PID.TID 0000.0001)                 2.087786486446736E+05,      /* J = 36 */
(PID.TID 0000.0001)                 1.808798091874300E+05,      /* J = 37 */
(PID.TID 0000.0001)                 1.520997414818001E+05,      /* J = 38 */
(PID.TID 0000.0001)                 1.225786591246834E+05,      /* J = 39 */
(PID.TID 0000.0001)                 9.246038586187513E+04       /* J = 40 */
(PID.TID 0000.0001)     ;
(PID.TID 0000.0001) dyC =  /* dyC(:,1,:,1) ( units: m ) */
(PID.TID 0000.0001)    90 @  4.447098934081552E+05              /* I =  1: 90 */
(PID.TID 0000.0001)     ;
(PID.TID 0000.0001) dyC =  /* dyC(1,:,1,:) ( units: m ) */
(PID.TID 0000.0001)    40 @  4.447098934081552E+05              /* J =  1: 40 */
(PID.TID 0000.0001)     ;
(PID.TID 0000.0001) dxV =  /* dxV(:,1,:,1) ( units: m ) */
(PID.TID 0000.0001)    90 @  7.722306258078101E+04              /* I =  1: 90 */
(PID.TID 0000.0001)     ;
(PID.TID 0000.0001) dxV =  /* dxV(1,:,1,:) ( units: m ) */
(PID.TID 0000.0001)                 7.722306258078101E+04,      /* J =  1 */
(PID.TID 0000.0001)                 1.075850604052271E+05,      /* J =  2 */
(PID.TID 0000.0001)                 1.374229146297914E+05,      /* J =  3 */
(PID.TID 0000.0001)                 1.665912582279823E+05,      /* J =  4 */
(PID.TID 0000.0001)                 1.949479859617814E+05,      /* J =  5 */
(PID.TID 0000.0001)                 2.223549467040777E+05,      /* J =  6 */
(PID.TID 0000.0001)                 2.486786164970726E+05,      /* J =  7 */
(PID.TID 0000.0001)                 2.737907490675810E+05,      /* J =  8 */
(PID.TID 0000.0001)                 2.975690006299821E+05,      /* J =  9 */
(PID.TID 0000.0001)                 3.198975259328452E+05,      /* J = 10 */
(PID.TID 0000.0001)                 3.406675426453503E+05,      /* J = 11 */
(PID.TID 0000.0001)                 3.597778613338690E+05,      /* J = 12 */
(PID.TID 0000.0001)                 3.771353784467131E+05,      /* J = 13 */
(PID.TID 0000.0001)                 3.926555299052806E+05,      /* J = 14 */
(PID.TID 0000.0001)                 4.062627030917454E+05,      /* J = 15 */
(PID.TID 0000.0001)                 4.178906052261313E+05,      /* J = 16 */
(PID.TID 0000.0001)                 4.274825863380723E+05,      /* J = 17 */
(PID.TID 0000.0001)                 4.349919152597734E+05,      /* J = 18 */
(PID.TID 0000.0001)                 4.403820072955634E+05,      /* J = 19 */
(PID.TID 0000.0001)                 4.436266024588540E+05,      /* J = 20 */
(PID.TID 0000.0001)                 4.447098934081552E+05,      /* J = 21 */
(PID.TID 0000.0001)                 4.436266024588540E+05,      /* J = 22 */
(PID.TID 0000.0001)                 4.403820072955634E+05,      /* J = 23 */
(PID.TID 0000.0001)                 4.349919152597734E+05,      /* J = 24 */
(PID.TID 0000.0001)                 4.274825863380723E+05,      /* J = 25 */
(PID.TID 0000.0001)                 4.178906052261313E+05,      /* J = 26 */
(PID.TID 0000.0001)                 4.062627030917454E+05,      /* J = 27 */
(PID.TID 0000.0001)                 3.926555299052806E+05,      /* J = 28 */
(PID.TID 0000.0001)                 3.771353784467131E+05,      /* J = 29 */
(PID.TID 0000.0001)                 3.597778613338690E+05,      /* J = 30 */
(PID.TID 0000.0001)                 3.406675426453503E+05,      /* J = 31 */
(PID.TID 0000.0001)                 3.198975259328452E+05,      /* J = 32 */
(PID.TID 0000.0001)                 2.975690006299821E+05,      /* J = 33 */
(PID.TID 0000.0001)                 2.737907490675810E+05,      /* J = 34 */
(PID.TID 0000.0001)                 2.486786164970726E+05,      /* J = 35 */
(PID.TID 0000.0001)                 2.223549467040777E+05,      /* J = 36 */
(PID.TID 0000.0001)                 1.949479859617814E+05,      /* J = 37 */
(PID.TID 0000.0001)                 1.665912582279823E+05,      /* J = 38 */
(PID.TID 0000.0001)                 1.374229146297914E+05,      /* J = 39 */
(PID.TID 0000.0001)                 1.075850604052271E+05       /* J = 40 */
(PID.TID 0000.0001)     ;
(PID.TID 0000.0001) dyU =  /* dyU(:,1,:,1) ( units: m ) */
(PID.TID 0000.0001)    90 @  4.447098934081552E+05              /* I =  1: 90 */
(PID.TID 0000.0001)     ;
(PID.TID 0000.0001) dyU =  /* dyU(1,:,1,:) ( units: m ) */
(PID.TID 0000.0001)    40 @  4.447098934081552E+05              /* J =  1: 40 */
(PID.TID 0000.0001)     ;
(PID.TID 0000.0001) rA  =  /* rA (:,1,:,1) ( units: m^2 ) */
(PID.TID 0000.0001)    90 @  4.110969866729047E+10              /* I =  1: 90 */
(PID.TID 0000.0001)     ;
(PID.TID 0000.0001) rA  =  /* rA (1,:,1,:) ( units: m^2 ) */
(PID.TID 0000.0001)                 4.110969866729047E+10,      /* J =  1 */
(PID.TID 0000.0001)                 5.450087291636665E+10,      /* J =  2 */
(PID.TID 0000.0001)                 6.762652439100235E+10,      /* J =  3 */
(PID.TID 0000.0001)                 8.042270623659998E+10,      /* J =  4 */
(PID.TID 0000.0001)                 9.282707674147523E+10,      /* J =  5 */
(PID.TID 0000.0001)                 1.047792030594103E+11,      /* J =  6 */
(PID.TID 0000.0001)                 1.162208556324093E+11,      /* J =  7 */
(PID.TID 0000.0001)                 1.270962918792468E+11,      /* J =  8 */
(PID.TID 0000.0001)                 1.373525277677229E+11,      /* J =  9 */
(PID.TID 0000.0001)                 1.469395959475426E+11,      /* J = 10 */
(PID.TID 0000.0001)                 1.558107891862220E+11,      /* J = 11 */
(PID.TID 0000.0001)                 1.639228879220326E+11,      /* J = 12 */
(PID.TID 0000.0001)                 1.712363708253573E+11,      /* J = 13 */
(PID.TID 0000.0001)                 1.777156073426415E+11,      /* J = 14 */
(PID.TID 0000.0001)                 1.833290312848623E+11,      /* J = 15 */
(PID.TID 0000.0001)                 1.880492946148330E+11,      /* J = 16 */
(PID.TID 0000.0001)                 1.918534006840893E+11,      /* J = 17 */
(PID.TID 0000.0001)                 1.947228162702492E+11,      /* J = 18 */
(PID.TID 0000.0001)                 1.966435618690094E+11,      /* J = 19 */
(PID.TID 0000.0001)     2 @  1.976062798008856E+11,             /* J = 20: 21 */
(PID.TID 0000.0001)                 1.966435618690094E+11,      /* J = 22 */
(PID.TID 0000.0001)                 1.947228162702492E+11,      /* J = 23 */
(PID.TID 0000.0001)                 1.918534006840893E+11,      /* J = 24 */
(PID.TID 0000.0001)                 1.880492946148330E+11,      /* J = 25 */
(PID.TID 0000.0001)                 1.833290312848623E+11,      /* J = 26 */
(PID.TID 0000.0001)                 1.777156073426415E+11,      /* J = 27 */
(PID.TID 0000.0001)                 1.712363708253573E+11,      /* J = 28 */
(PID.TID 0000.0001)                 1.639228879220326E+11,      /* J = 29 */
(PID.TID 0000.0001)                 1.558107891862220E+11,      /* J = 30 */
(PID.TID 0000.0001)                 1.469395959475426E+11,      /* J = 31 */
(PID.TID 0000.0001)                 1.373525277677229E+11,      /* J = 32 */
(PID.TID 0000.0001)                 1.270962918792468E+11,      /* J = 33 */
(PID.TID 0000.0001)                 1.162208556324093E+11,      /* J = 34 */
(PID.TID 0000.0001)                 1.047792030594103E+11,      /* J = 35 */
(PID.TID 0000.0001)                 9.282707674147523E+10,      /* J = 36 */
(PID.TID 0000.0001)                 8.042270623659998E+10,      /* J = 37 */
(PID.TID 0000.0001)                 6.762652439100235E+10,      /* J = 38 */
(PID.TID 0000.0001)                 5.450087291636665E+10,      /* J = 39 */
(PID.TID 0000.0001)                 4.110969866729047E+10       /* J = 40 */
(PID.TID 0000.0001)     ;
(PID.TID 0000.0001) rAw =  /* rAw(:,1,:,1) ( units: m^2 ) */
(PID.TID 0000.0001)    90 @  4.110969866729047E+10              /* I =  1: 90 */
(PID.TID 0000.0001)     ;
(PID.TID 0000.0001) rAw =  /* rAw(1,:,1,:) ( units: m^2 ) */
(PID.TID 0000.0001)                 4.110969866729047E+10,      /* J =  1 */
(PID.TID 0000.0001)                 5.450087291636665E+10,      /* J =  2 */
(PID.TID 0000.0001)                 6.762652439100235E+10,      /* J =  3 */
(PID.TID 0000.0001)                 8.042270623659998E+10,      /* J =  4 */
(PID.TID 0000.0001)                 9.282707674147523E+10,      /* J =  5 */
(PID.TID 0000.0001)                 1.047792030594103E+11,      /* J =  6 */
(PID.TID 0000.0001)                 1.162208556324093E+11,      /* J =  7 */
(PID.TID 0000.0001)                 1.270962918792468E+11,      /* J =  8 */
(PID.TID 0000.0001)                 1.373525277677229E+11,      /* J =  9 */
(PID.TID 0000.0001)                 1.469395959475426E+11,      /* J = 10 */
(PID.TID 0000.0001)                 1.558107891862220E+11,      /* J = 11 */
(PID.TID 0000.0001)                 1.639228879220326E+11,      /* J = 12 */
(PID.TID 0000.0001)                 1.712363708253573E+11,      /* J = 13 */
(PID.TID 0000.0001)                 1.777156073426415E+11,      /* J = 14 */
(PID.TID 0000.0001)                 1.833290312848623E+11,      /* J = 15 */
(PID.TID 0000.0001)                 1.880492946148330E+11,      /* J = 16 */
(PID.TID 0000.0001)                 1.918534006840893E+11,      /* J = 17 */
(PID.TID 0000.0001)                 1.947228162702492E+11,      /* J = 18 */
(PID.TID 0000.0001)                 1.966435618690094E+11,      /* J = 19 */
(PID.TID 0000.0001)     2 @  1.976062798008856E+11,             /* J = 20: 21 */
(PID.TID 0000.0001)                 1.966435618690094E+11,      /* J = 22 */
(PID.TID 0000.0001)                 1.947228162702492E+11,      /* J = 23 */
(PID.TID 0000.0001)                 1.918534006840893E+11,      /* J = 24 */
(PID.TID 0000.0001)                 1.880492946148330E+11,      /* J = 25 */
(PID.TID 0000.0001)                 1.833290312848623E+11,      /* J = 26 */
(PID.TID 0000.0001)                 1.777156073426415E+11,      /* J = 27 */
(PID.TID 0000.0001)                 1.712363708253573E+11,      /* J = 28 */
(PID.TID 0000.0001)                 1.639228879220326E+11,      /* J = 29 */
(PID.TID 0000.0001)                 1.558107891862220E+11,      /* J = 30 */
(PID.TID 0000.0001)                 1.469395959475426E+11,      /* J = 31 */
(PID.TID 0000.0001)                 1.373525277677229E+11,      /* J = 32 */
(PID.TID 0000.0001)                 1.270962918792468E+11,      /* J = 33 */
(PID.TID 0000.0001)                 1.162208556324093E+11,      /* J = 34 */
(PID.TID 0000.0001)                 1.047792030594103E+11,      /* J = 35 */
(PID.TID 0000.0001)                 9.282707674147523E+10,      /* J = 36 */
(PID.TID 0000.0001)                 8.042270623659998E+10,      /* J = 37 */
(PID.TID 0000.0001)                 6.762652439100235E+10,      /* J = 38 */
(PID.TID 0000.0001)                 5.450087291636665E+10,      /* J = 39 */
(PID.TID 0000.0001)                 4.110969866729047E+10       /* J = 40 */
(PID.TID 0000.0001)     ;
(PID.TID 0000.0001) rAs =  /* rAs(:,1,:,1) ( units: m^2 ) */
(PID.TID 0000.0001)    90 @  3.433488626798250E+10              /* I =  1: 90 */
(PID.TID 0000.0001)     ;
(PID.TID 0000.0001) rAs =  /* rAs(1,:,1,:) ( units: m^2 ) */
(PID.TID 0000.0001)                 3.433488626798250E+10,      /* J =  1 */
(PID.TID 0000.0001)                 4.783442523123625E+10,      /* J =  2 */
(PID.TID 0000.0001)                 6.110091968306414E+10,      /* J =  3 */
(PID.TID 0000.0001)                 7.406973659603818E+10,      /* J =  4 */
(PID.TID 0000.0001)                 8.667769319778079E+10,      /* J =  5 */
(PID.TID 0000.0001)                 9.886336479107463E+10,      /* J =  6 */
(PID.TID 0000.0001)                 1.105673840088173E+11,      /* J =  7 */
(PID.TID 0000.0001)                 1.217327300458638E+11,      /* J =  8 */
(PID.TID 0000.0001)                 1.323050064586578E+11,      /* J =  9 */
(PID.TID 0000.0001)                 1.422327061792377E+11,      /* J = 10 */
(PID.TID 0000.0001)                 1.514674624524945E+11,      /* J = 11 */
(PID.TID 0000.0001)                 1.599642844741385E+11,      /* J = 12 */
(PID.TID 0000.0001)                 1.676817765813788E+11,      /* J = 13 */
(PID.TID 0000.0001)                 1.745823399284268E+11,      /* J = 14 */
(PID.TID 0000.0001)                 1.806323556642996E+11,      /* J = 15 */
(PID.TID 0000.0001)                 1.858023487204767E+11,      /* J = 16 */
(PID.TID 0000.0001)                 1.900671314104743E+11,      /* J = 17 */
(PID.TID 0000.0001)                 1.934059261417216E+11,      /* J = 18 */
(PID.TID 0000.0001)                 1.958024666419019E+11,      /* J = 19 */
(PID.TID 0000.0001)                 1.972450772065981E+11,      /* J = 20 */
(PID.TID 0000.0001)                 1.977267295821495E+11,      /* J = 21 */
(PID.TID 0000.0001)                 1.972450772065981E+11,      /* J = 22 */
(PID.TID 0000.0001)                 1.958024666419019E+11,      /* J = 23 */
(PID.TID 0000.0001)                 1.934059261417216E+11,      /* J = 24 */
(PID.TID 0000.0001)                 1.900671314104743E+11,      /* J = 25 */
(PID.TID 0000.0001)                 1.858023487204767E+11,      /* J = 26 */
(PID.TID 0000.0001)                 1.806323556642996E+11,      /* J = 27 */
(PID.TID 0000.0001)                 1.745823399284268E+11,      /* J = 28 */
(PID.TID 0000.0001)                 1.676817765813788E+11,      /* J = 29 */
(PID.TID 0000.0001)                 1.599642844741385E+11,      /* J = 30 */
(PID.TID 0000.0001)                 1.514674624524945E+11,      /* J = 31 */
(PID.TID 0000.0001)                 1.422327061792377E+11,      /* J = 32 */
(PID.TID 0000.0001)                 1.323050064586578E+11,      /* J = 33 */
(PID.TID 0000.0001)                 1.217327300458638E+11,      /* J = 34 */
(PID.TID 0000.0001)                 1.105673840088173E+11,      /* J = 35 */
(PID.TID 0000.0001)                 9.886336479107463E+10,      /* J = 36 */
(PID.TID 0000.0001)                 8.667769319778079E+10,      /* J = 37 */
(PID.TID 0000.0001)                 7.406973659603818E+10,      /* J = 38 */
(PID.TID 0000.0001)                 6.110091968306414E+10,      /* J = 39 */
(PID.TID 0000.0001)                 4.783442523123625E+10       /* J = 40 */
(PID.TID 0000.0001)     ;
(PID.TID 0000.0001) globalArea = /* Integrated horizontal Area (m^2) */
(PID.TID 0000.0001)                 3.450614146649838E+14
(PID.TID 0000.0001)     ;
(PID.TID 0000.0001) the_run_name = /* Name of this simulation */
(PID.TID 0000.0001)               'global_oce_latlon'
(PID.TID 0000.0001)     ;
(PID.TID 0000.0001) // =======================================================
(PID.TID 0000.0001) // End of Model config. summary
(PID.TID 0000.0001) // =======================================================
(PID.TID 0000.0001) 
(PID.TID 0000.0001) == Packages configuration : Check & print summary ==
(PID.TID 0000.0001) 
(PID.TID 0000.0001) GMREDI_CHECK: #define GMREDI
(PID.TID 0000.0001) GM_AdvForm =     /* if FALSE => use SkewFlux Form */
(PID.TID 0000.0001)                   F
(PID.TID 0000.0001)     ;
(PID.TID 0000.0001) GM_InMomAsStress = /* if TRUE => apply as Eddy Stress */
(PID.TID 0000.0001)                   F
(PID.TID 0000.0001)     ;
(PID.TID 0000.0001) GM_AdvSeparate = /* Calc Bolus & Euler Adv. separately */
(PID.TID 0000.0001)                   F
(PID.TID 0000.0001)     ;
(PID.TID 0000.0001) GM_ExtraDiag =   /* Tensor Extra Diag (line 1&2) non 0 */
(PID.TID 0000.0001)                   F
(PID.TID 0000.0001)     ;
(PID.TID 0000.0001) GM_isopycK =    /* Background Isopyc. Diffusivity [m^2/s] */
(PID.TID 0000.0001)                 1.000000000000000E+03
(PID.TID 0000.0001)     ;
(PID.TID 0000.0001) GM_skewflx*K =  /* Background GM_SkewFlx Diffusivity [m^2/s] */
(PID.TID 0000.0001)                 1.000000000000000E+03
(PID.TID 0000.0001)     ;
(PID.TID 0000.0001) GM_advec*K =    /* Backg. GM-Advec(=Bolus) Diffusivity [m^2/s]*/
(PID.TID 0000.0001)                 0.000000000000000E+00
(PID.TID 0000.0001)     ;
(PID.TID 0000.0001) GM_Kmin_horiz = /* Minimum Horizontal Diffusivity [m^2/s] */
(PID.TID 0000.0001)                 5.000000000000000E+01
(PID.TID 0000.0001)     ;
(PID.TID 0000.0001) GM_Visbeck_alpha = /* Visbeck alpha coeff. [-] */
(PID.TID 0000.0001)                 0.000000000000000E+00
(PID.TID 0000.0001)     ;
(PID.TID 0000.0001) GM_Small_Number =  /* epsilon used in slope calc */
(PID.TID 0000.0001)                 9.999999999999999E-21
(PID.TID 0000.0001)     ;
(PID.TID 0000.0001) GM_slopeSqCutoff = /* Slope^2 cut-off value */
(PID.TID 0000.0001)                 1.000000000000000E+48
(PID.TID 0000.0001)     ;
(PID.TID 0000.0001) GM_taper_scheme =  /* Type of Tapering/Clipping scheme */
(PID.TID 0000.0001)               'gkw91                                   '
(PID.TID 0000.0001)     ;
(PID.TID 0000.0001) GM_maxSlope =  /* Maximum Slope (Tapering/Clipping) */
(PID.TID 0000.0001)                 1.000000000000000E-02
(PID.TID 0000.0001)     ;
(PID.TID 0000.0001) GM_facTrL2dz = /* Minimum Trans.Layer Thick. (factor of dz) */
(PID.TID 0000.0001)                 1.000000000000000E+00
(PID.TID 0000.0001)     ;
(PID.TID 0000.0001) GM_facTrL2ML = /* Max.Trans.Layer Thick. (factor of MxL Depth)*/
(PID.TID 0000.0001)                 5.000000000000000E+00
(PID.TID 0000.0001)     ;
(PID.TID 0000.0001) GM_maxTransLay = /* Maximum Transition Layer Thickness [m] */
(PID.TID 0000.0001)                 5.000000000000000E+02
(PID.TID 0000.0001)     ;
(PID.TID 0000.0001) GM_UseBVP = /* if TRUE => use bvp a la Ferrari et al. (2010) */
(PID.TID 0000.0001)                   F
(PID.TID 0000.0001)     ;
(PID.TID 0000.0001) GM_BVP_ModeNumber = /* Vertical mode number for BVP wave speed */
(PID.TID 0000.0001)                       1
(PID.TID 0000.0001)     ;
(PID.TID 0000.0001) GM_BVP_cMin = /* Minimum wave speed for BVP [m/s] */
(PID.TID 0000.0001)                 1.000000000000000E-01
(PID.TID 0000.0001)     ;
(PID.TID 0000.0001) GM_useSubMeso = /* if TRUE => use Sub-Meso param. (B.Fox-Kemper) */
(PID.TID 0000.0001)                   F
(PID.TID 0000.0001)     ;
(PID.TID 0000.0001) subMeso_Ceff = /* efficiency coeff. of Mixed-Layer Eddies [-] */
(PID.TID 0000.0001)                 7.000000000000001E-02
(PID.TID 0000.0001)     ;
(PID.TID 0000.0001) subMeso_invTau = /* inverse of Sub-Meso mixing time-scale [/s] */
(PID.TID 0000.0001)                 2.000000000000000E-06
(PID.TID 0000.0001)     ;
(PID.TID 0000.0001) subMeso_LfMin = /* minimum length-scale "Lf" [m] */
(PID.TID 0000.0001)                 1.000000000000000E+03
(PID.TID 0000.0001)     ;
(PID.TID 0000.0001) subMeso_Lmax = /* maximum grid-scale length [m] */
(PID.TID 0000.0001)                 1.100000000000000E+05
(PID.TID 0000.0001)     ;
(PID.TID 0000.0001) GM_useLeithQG = /* if TRUE => add QG Leith viscosity to GMRedi tensor */
(PID.TID 0000.0001)                   F
(PID.TID 0000.0001)     ;
(PID.TID 0000.0001) GAD_CHECK: #define ALLOW_GENERIC_ADVDIFF
(PID.TID 0000.0001) // =======================================================
(PID.TID 0000.0001) // Check Model config. (CONFIG_CHECK):
(PID.TID 0000.0001) // CONFIG_CHECK : Normal End
(PID.TID 0000.0001) // =======================================================
(PID.TID 0000.0001) 
(PID.TID 0000.0001)  MDS_WRITE_FIELD: it,rec,kS,kL,kH=      -1     1   1   1   1 file=XC
(PID.TID 0000.0001)  MDS_WRITE_FIELD: it,rec,kS,kL,kH=      -1     1   1   1   1 file=YC
(PID.TID 0000.0001)  MDS_WRITE_FIELD: it,rec,kS,kL,kH=      -1     1   1   1   1 file=XG
(PID.TID 0000.0001)  MDS_WRITE_FIELD: it,rec,kS,kL,kH=      -1     1   1   1   1 file=YG
(PID.TID 0000.0001)  MDS_WRITE_FIELD: it,rec,kS,kL,kH=      -1     1   1   1   1 file=RAC
(PID.TID 0000.0001)  MDS_WRITE_FIELD: it,rec,kS,kL,kH=      -1     1   1   1   1 file=RAW
(PID.TID 0000.0001)  MDS_WRITE_FIELD: it,rec,kS,kL,kH=      -1     1   1   1   1 file=RAS
(PID.TID 0000.0001)  MDS_WRITE_FIELD: it,rec,kS,kL,kH=      -1     1   1   1   1 file=RAZ
(PID.TID 0000.0001)  MDS_WRITE_FIELD: it,rec,kS,kL,kH=      -1     1   1   1   1 file=DXG
(PID.TID 0000.0001)  MDS_WRITE_FIELD: it,rec,kS,kL,kH=      -1     1   1   1   1 file=DYG
(PID.TID 0000.0001)  MDS_WRITE_FIELD: it,rec,kS,kL,kH=      -1     1   1   1   1 file=DXC
(PID.TID 0000.0001)  MDS_WRITE_FIELD: it,rec,kS,kL,kH=      -1     1   1   1   1 file=DYC
(PID.TID 0000.0001)  MDS_WRITE_FIELD: it,rec,kS,kL,kH=      -1     1   1   1   1 file=DXF
(PID.TID 0000.0001)  MDS_WRITE_FIELD: it,rec,kS,kL,kH=      -1     1   1   1   1 file=DYF
(PID.TID 0000.0001)  MDS_WRITE_FIELD: it,rec,kS,kL,kH=      -1     1   1   1   1 file=DXV
(PID.TID 0000.0001)  MDS_WRITE_FIELD: it,rec,kS,kL,kH=      -1     1   1   1   1 file=DYU
(PID.TID 0000.0001)  MDS_WRITE_FIELD: it,rec,kS,kL,kH=      -1     1   1   1   1 file=Depth
(PID.TID 0000.0001)  MDS_WRITE_FIELD: it,rec,kS,kL,kH=      -1     1   1   1   1 file=rLowC
(PID.TID 0000.0001)  MDS_WRITE_FIELD: it,rec,kS,kL,kH=      -1     1   1   1   1 file=rLowW
(PID.TID 0000.0001)  MDS_WRITE_FIELD: it,rec,kS,kL,kH=      -1     1   1   1   1 file=rLowS
(PID.TID 0000.0001)  MDS_WRITE_FIELD: it,rec,kS,kL,kH=      -1     1   1   1   1 file=rSurfC
(PID.TID 0000.0001)  MDS_WRITE_FIELD: it,rec,kS,kL,kH=      -1     1   1   1   1 file=rSurfW
(PID.TID 0000.0001)  MDS_WRITE_FIELD: it,rec,kS,kL,kH=      -1     1   1   1   1 file=rSurfS
(PID.TID 0000.0001)  MDS_WRITE_FIELD: it,rec,kS,kL,kH=       0     1  15   1  15 file=hFacC
(PID.TID 0000.0001)  MDS_WRITE_FIELD: it,rec,kS,kL,kH=       0     1  15   1  15 file=hFacW
(PID.TID 0000.0001)  MDS_WRITE_FIELD: it,rec,kS,kL,kH=       0     1  15   1  15 file=hFacS
(PID.TID 0000.0001)  MDS_WRITEVEC_LOC: open file: RC.data
(PID.TID 0000.0001)  MDS_WR_REC_RS: iRec,Dim =         1         15
(PID.TID 0000.0001)  MDS_WRITEVEC_LOC: open file: RF.data
(PID.TID 0000.0001)  MDS_WR_REC_RS: iRec,Dim =         1         16
(PID.TID 0000.0001)  MDS_WRITEVEC_LOC: open file: DRC.data
(PID.TID 0000.0001)  MDS_WR_REC_RS: iRec,Dim =         1         16
(PID.TID 0000.0001)  MDS_WRITEVEC_LOC: open file: DRF.data
(PID.TID 0000.0001)  MDS_WR_REC_RS: iRec,Dim =         1         15
(PID.TID 0000.0001)  MDS_WRITEVEC_LOC: open file: PHrefF.data
(PID.TID 0000.0001)  MDS_WR_REC_RS: iRec,Dim =         1         16
(PID.TID 0000.0001)  MDS_WRITEVEC_LOC: open file: PHrefC.data
(PID.TID 0000.0001)  MDS_WR_REC_RS: iRec,Dim =         1         15
(PID.TID 0000.0001)  MDS_READ_FIELD: opening global file: lev_t.bin
(PID.TID 0000.0001) // =======================================================
(PID.TID 0000.0001) // Field Initial Temperature at iteration          1
(PID.TID 0000.0001) // CMIN =         -1.900000000000000E+00
(PID.TID 0000.0001) // CMAX =          2.973338890075684E+01
(PID.TID 0000.0001) // CINT =          1.171606996324327E+00
(PID.TID 0000.0001) // SYMBOLS (CMIN->CMAX): -abcdefghijklmnopqrstuvwxyz+
(PID.TID 0000.0001) //                  0.0: .
(PID.TID 0000.0001) // RANGE I (Lo:Hi:Step):(     1:    90:     1)
(PID.TID 0000.0001) // RANGE J (Lo:Hi:Step):(    40:     1:    -1)
(PID.TID 0000.0001) // RANGE K (Lo:Hi:Step):(   1:   1:   1)
(PID.TID 0000.0001) // =======================================================
(PID.TID 0000.0001) K =   1
(PID.TID 0000.0001)                I=10      I=20      I=30      I=40      I=50      I=60      I=70      I=80      I=90
(PID.TID 0000.0001) |--J--|123456789|123456789|123456789|123456789|123456789|123456789|123456789|123456789|123456789|
(PID.TID 0000.0001)     40 bccdd.baa----abdedd..................................................................bbbbb
(PID.TID 0000.0001)     39 ccdddddccbbbaa...ed.....................................................----........bbbbbb
(PID.TID 0000.0001)     38 fffgfedeedddc...........................................................-----......cbbbcde
(PID.TID 0000.0001)     37 ghh..................................................................bc...bbc...edeed.defg
(PID.TID 0000.0001)     36 hh.........................................ddcb....................dcccbabccdd.eefghhihhih
(PID.TID 0000.0001)     35 hh.................................aaab..dddeddd...ffggg...........ccc....ddeeeffghijjjjih
(PID.TID 0000.0001)     34 ...................................babb.deeeeeee.ffffgghh..................ccdffghijkkkj..
(PID.TID 0000.0001)     33 ....................................accdddeeeeefffffgghhiii.................bcfijkkllllkk.
(PID.TID 0000.0001)     32 ....................................bdddeffgffgghhhhhiiijjj................dccglmnmmmmlll.
(PID.TID 0000.0001)     31 ....................................fghiiiijjjjjjkkkkklllkk..............ikkjjmooooonnmm..
(PID.TID 0000.0001)     30 ...................................mmmnmmmmmmmmmmmmmnnnnnmm............moqrrrqrqqqpppooo..
(PID.TID 0000.0001)     29 .................................pqqqqqpppppppppoppoppppponm...........ssssssrrrrrqqqqpp..
(PID.TID 0000.0001)     28 ...............................prssssrrrsssrrrrrrrrrrrrrqqpoo.........uttssstssrssrrrqqq..
(PID.TID 0000.0001)     27 ..............vv..............stuttuuuuutuuuuuuuuuuttttssrrqqq...stuu.vvvuuuuutttttsss....
(PID.TID 0000.0001)     26 ..............vvv...........uuvvvvvwwwwwwwwvvvvvvvvvuuutttsssttv.uuvxxwwwwwwvvvvuuttsr....
(PID.TID 0000.0001)     25 ..............wwwx...xxx...vvvxxxxxyyxxxxxxxxxwwwwwvvvvvuuuuuvwwx...xxxxxxwwwwwwvvutsr....
(PID.TID 0000.0001)     24 ............wwwwxyy.xxyy...wxx.yyyyyyyyyyyxxxxxxxxwwwwwwwvvwwxxyywww.xxxxxxxxxxwwwvvur....
(PID.TID 0000.0001)     23 ............xxxyyyz.xyyy...xxx..yyyyzzyyyyyyyyxxxxxxxxxwwwwwxxxwwwwwx....vwxxxxwwwwwvu....
(PID.TID 0000.0001)     22 w...........xxyyyzyyyyyz...xx.yyzzzzzzzzzzzzzyyzyyyyyyxxwwxxxxwvvvwwxw......yyyyxxxxxxwxxw
(PID.TID 0000.0001)     21 xxx........xxxxyyzzzzzzz+.....zyzzzzzzz++zzzzyyyyyyyyxxwvvwwwwvvvvvvvu........yyyyyyyyyxxx
(PID.TID 0000.0001)     20 xww.......xyyyyxyyzzzzzz+......z.zzzzz+++zzzzzzyyyyyxxxxwvwxwvuuuuuuut.........yyyyxxxxwww
(PID.TID 0000.0001)     19 vvv.......yyyyxwwxyzyyzzzzz...zzz.....++++++z++z+zzzyyyyxxxxwwvvvvvvvu...........yyxxxwwww
(PID.TID 0000.0001)     18 uut.......zzyyywwxyzyyyyzzyzzzzzz...z+z++++zz+++++++zzzyyyyxxwwwvvvvvtt..........yyxxwvvwv
(PID.TID 0000.0001)     17 uus.......z.yyyyyyxyzzyyyyyyyzz.....yzzzzzzzzzzzzzzzzzzyyyyxxwwvuuvvuut.........yyyxxwttvu
(PID.TID 0000.0001)     16 utr......yy.zyyyyxxxxxxxwxxxxy.......yyyyyyyyyyyyyyyyyyyyyyyxxwvvvuuutts........xyyyxwvuuu
(PID.TID 0000.0001)     15 ttrr....xxx.xxxwxwwwwvwwvvvww.........xwxxxxxxxxxxxxxxxxxyyyxwwwvvuttssrr......wxxxxxwwvuu
(PID.TID 0000.0001)     14 ttsq....xyxwwxwvwwwvutuuuuuuu.........wwvwwwwvwvvwwwvwvvwwwwwwvvvuuutssrr.....vwwwwwwwvvvu
(PID.TID 0000.0001)     13 tttr....wwwvvvtttuuuutttssttt.........vvvuuuuuuutttttuuuuuvwwwuuuttttssrr....uvvvvvvvvvvut
(PID.TID 0000.0001)     12 sssssstttutssssrrrrrstrqqrrssqqrrq....uuttssssrrrrrrrrrrrstttssssrssrrqp.....uuuttssttssss
(PID.TID 0000.0001)     11 poprsssrqqqqqrqppooopqpoppppppppppp..sssrrr.rqpppqqqqppppqqqoppqqqqrqqpp....prsrqqqqqppppq
(PID.TID 0000.0001)     10 lllmoooonmnnmnnnnmmmmmmlmmlllmnnnnon.qqqppp.ppppppooooooooonmnnnonnooooo..nmoponnmnnnnnmll
(PID.TID 0000.0001)      9 ihhiiiihhhhhhiiihiiiiihhhiiiijjkkmnllnnnnn.mmmmnnnnmmmmnnmmlklllllklllll.mllmmllkjiijjihhi
(PID.TID 0000.0001)      8 eeeeeeeedefgggffeeffggffffggghiiiijjijklklkkkkkkkklllkkkkjjiiijkjjjjjjkj.kkjjiihggffffedde
(PID.TID 0000.0001)      7 cccccddeedddefeddddddddddefeefffffgggghiiiiiijjjihhgggghhhhhghhhhhhhiiiihiihhgfeddddddcccc
(PID.TID 0000.0001)      6 abbcccddcccccdddddccdddddddccddddddeeeeffggggghhgeddddddeeeeeeefggggghggggffeedccbbbbbbbba
(PID.TID 0000.0001)      5 bbbcccccccccccccccccccccbbccccdddddddcccddeeddeedcbbbbbbccccccdddeeeeeddddddccbbbbaaaaaaab
(PID.TID 0000.0001)      4 bbbbbbbaaabbbbbbbbbbbbaabbabbbbcbbbbbbbbbbbbbbbbbbbabbaaabbbbbbbbbbbbbbbbb..a--aaabbbaaabb
(PID.TID 0000.0001)      3 bbbbaaa-a-............................bbaaaaaaaaaaaaaaaaaaaaaaaaaaaaaaaab..aaaaaaaabbbaaaa
(PID.TID 0000.0001)      2 ..........................................baaaaaaaaaaaa-------aa..aaaa.....aaaaaaaaaaaa...
(PID.TID 0000.0001)      1 ..........................................................................................
(PID.TID 0000.0001) // =======================================================
(PID.TID 0000.0001) // END OF FIELD                                          =
(PID.TID 0000.0001) // =======================================================
(PID.TID 0000.0001) 
(PID.TID 0000.0001)  MDS_READ_FIELD: opening global file: lev_s.bin
(PID.TID 0000.0001) // =======================================================
(PID.TID 0000.0001) // Field Initial Salinity at iteration          1
(PID.TID 0000.0001) // CMIN =          2.975276947021484E+01
(PID.TID 0000.0001) // CMAX =          3.747562789916992E+01
(PID.TID 0000.0001) // CINT =          2.860317936650029E-01
(PID.TID 0000.0001) // SYMBOLS (CMIN->CMAX): -abcdefghijklmnopqrstuvwxyz+
(PID.TID 0000.0001) //                  0.0: .
(PID.TID 0000.0001) // RANGE I (Lo:Hi:Step):(     1:    90:     1)
(PID.TID 0000.0001) // RANGE J (Lo:Hi:Step):(    40:     1:    -1)
(PID.TID 0000.0001) // RANGE K (Lo:Hi:Step):(   1:   1:   1)
(PID.TID 0000.0001) // =======================================================
(PID.TID 0000.0001) K =   1
(PID.TID 0000.0001)                I=10      I=20      I=30      I=40      I=50      I=60      I=70      I=80      I=90
(PID.TID 0000.0001) |--J--|123456789|123456789|123456789|123456789|123456789|123456789|123456789|123456789|123456789|
(PID.TID 0000.0001)     40 qrrrr.oonnooopqtutt..................................................................mnnop
(PID.TID 0000.0001)     39 rssrrrrrrrqqpn...ut.....................................................mmmm........opqqqr
(PID.TID 0000.0001)     38 ssrrqqqqrrqpo...........................................................lkkll......onoqrrs
(PID.TID 0000.0001)     37 ssr..................................................................hg...lln...qppqr.rrrs
(PID.TID 0000.0001)     36 rr.........................................lkji....................feeegikmoop.pqrssssssss
(PID.TID 0000.0001)     35 rr.................................kkkk..lllllki...jijjj...........aa-....opqrrrrrrrssttss
(PID.TID 0000.0001)     34 ...................................jlll.kklllllk.ijkkkjih..................hlpqrqrrsstts..
(PID.TID 0000.0001)     33 ....................................iklkkkkkkkkkjkkjjjjjjii.................jmprrsstttttt.
(PID.TID 0000.0001)     32 ....................................iklllkllllllllkkkkkkkji................gilpstuuttuuut.
(PID.TID 0000.0001)     31 ....................................lmnonnnnoooonnmmmmllkjj..............loopqtvvvuuuuuu..
(PID.TID 0000.0001)     30 ...................................pppppppqqqqpppoooonnmlkk............ptvxwwvvwvvvvvvvu..
(PID.TID 0000.0001)     29 .................................pqqrqqqqqqrrrqqppqqqpponmll...........vxxxxxxwwwwwxwwxw..
(PID.TID 0000.0001)     28 ...............................prrrrrqqrrrrrsrrsrssssssrqonmm.........wxxxxxxxyyyyyyyyxx..
(PID.TID 0000.0001)     27 ..............xx..............prrrrrrrrrssssssstttssssssrqpoop...uwww.wwxxxyyy++zzzzyy....
(PID.TID 0000.0001)     26 ..............wxx...........ppqrrrrrrsssrrstsstttssrrrrrrrqppqqp.wwwvvwwwwwxyy+++zzyxw....
(PID.TID 0000.0001)     25 ..............wxxv...kkk...ooopqrrrrrssrrrrrrrssssqqpppppppppppoo...vvutuuvvwxyyyxxvvu....
(PID.TID 0000.0001)     24 ............uvvwwur.lmlk...nmm.pqqqqrrrrrqqqqrrqqrpppppooooonmmmnooo.uuuuuuttuvvvuvuut....
(PID.TID 0000.0001)     23 ............vvuvtqp.lmml...mln..ppppqpqppppppqpppppppppqppponnnnnoopm....xvuuuvvvvuuut....
(PID.TID 0000.0001)     22 r...........vuttsqqpnppn...mm.oppqqrrqqqqqqppppqqrrrqqqrrppppoopooomjj......uuvvvvvuttssrr
(PID.TID 0000.0001)     21 qmm........ttsssssssrsqon.....opqqqqqqqrrrrqqqssssssrrrrrrrrpqqqppomll........tvvvvuttssrr
(PID.TID 0000.0001)     20 sqq.......sttssrrsrrrrpol......p.qrqpqrrrrrrrstttttsssrrsssrqrrrrqqqpo.........wwwvvvuuutt
(PID.TID 0000.0001)     19 tsr.......ssssrrrrpppppnmmm...oqq.....qrqqsrrstttuuuttssttssrrssrrrrqq...........wwwvuvvvv
(PID.TID 0000.0001)     18 wut.......ssrrrrrqppppppppoooorrr...poqqqprrrttttuuutuuuuuutttttttutsss..........yyxwwxwxx
(PID.TID 0000.0001)     17 wwu.......s.rrrrrrqppppqqqqqqqr.....rrsrqrsssuusrtuuuvvvwwvvvuuuuutttss.........xyzyyyyxxx
(PID.TID 0000.0001)     16 vvt......ss.qrrssrqrqpqrrrrrrr.......ssrrstsstusrsuuuvwwwwxxwwvvvuttttsr........yz+zzzxwww
(PID.TID 0000.0001)     15 utss....stt.rrssstttsrrsrstsr.........ssstttssttsuuttuvvvvwxwwwwwuttsssrr......xyyyyxyyxwv
(PID.TID 0000.0001)     14 utts....sstrrssstuuuuuuuuuutt.........stttuutttttttuttttttuvvvvvvutsrqrrr.....vxxwwwwxwvwv
(PID.TID 0000.0001)     13 uuut....ttttttttuuuuuvtuuuuuu.........ttttuutttttttuutsssstttttstsqrqqppp....uwwwvuvvvutvv
(PID.TID 0000.0001)     12 ttttttttttttttttttttttssuuuuutuuut....tttttttttttsssssrrrrrrrqqqqqppppoo.....rvvuuttttttuu
(PID.TID 0000.0001)     11 rqsttttttttuuttttsssssrrstttttttsss..ttttts.tsssrrrrqqqqqppppoonnooooooo....oruttttsssrqrs
(PID.TID 0000.0001)     10 pppqrssrqqrqpqrssrrqqqqqqrrrrrrrrrrs.sssssr.rssrrqqpppppppooooonnnoooonn..moqrrrqqqqqqqqqq
(PID.TID 0000.0001)      9 oonooooooooonnnooooooooooppppppqqqqqrrrqrq.pppqqqqqppppppppppoooooooooll.lmoqqqqppooooopoo
(PID.TID 0000.0001)      8 nnnoonooooooonnnnnnnoooonoonoooppopqqqqqqqppopppqqqpppppppppppppppooopon.lnopppoooonnnnooo
(PID.TID 0000.0001)      7 ooooooooooopponnnooooooonnnnnonnooooooooopppppppoooooooooopppppppppoopqnnmnoooonnnonnnnnno
(PID.TID 0000.0001)      6 oooonnoonnnnooooooooooooonnnnnnnnnnnnnnnnoooopppooooooooooooooppppppppppoooooooonnnnnmnnnn
(PID.TID 0000.0001)      5 oooonnnnnnnnnnnnnnnnnoooooonnnnnnonnnnnnnnnoooooooooooonnnnnnooooooopoooonoooonnnnnnnooooo
(PID.TID 0000.0001)      4 oooonnnooonnnnnnnnnnnnnnoooooonnnooooonnnooooooooppponnnnmmmnnnnmnnoonnnnn..nnnooooooooooo
(PID.TID 0000.0001)      3 ooonnnnnnn............................nnoooooonnooooonnnnnnnoonnnnnnnnmmm..ooopooooooooooo
(PID.TID 0000.0001)      2 ..........................................pppooooonnnnnnoooppppo..nnnn.....qqqpppoooooo...
(PID.TID 0000.0001)      1 ..........................................................................................
(PID.TID 0000.0001) // =======================================================
(PID.TID 0000.0001) // END OF FIELD                                          =
(PID.TID 0000.0001) // =======================================================
(PID.TID 0000.0001) 
(PID.TID 0000.0001) Start initial hydrostatic pressure computation
(PID.TID 0000.0001) Pressure is predetermined for buoyancyRelation OCEANIC
(PID.TID 0000.0001) 
(PID.TID 0000.0001)  MDS_READ_FIELD: opening global file: trenberth_taux.bin
(PID.TID 0000.0001)  MDS_READ_FIELD: opening global file: trenberth_tauy.bin
(PID.TID 0000.0001)  MDS_READ_FIELD: opening global file: ncep_qnet.bin
(PID.TID 0000.0001)  MDS_READ_FIELD: opening global file: ncep_emp.bin
(PID.TID 0000.0001)  MDS_READ_FIELD: opening global file: lev_sst.bin
(PID.TID 0000.0001)  MDS_READ_FIELD: opening global file: lev_sss.bin
(PID.TID 0000.0001) // =======================================================
(PID.TID 0000.0001) // Model current state
(PID.TID 0000.0001) // =======================================================
(PID.TID 0000.0001) 
(PID.TID 0000.0001) // =======================================================
(PID.TID 0000.0001) // Begin MONITOR dynamic field statistics
(PID.TID 0000.0001) // =======================================================
(PID.TID 0000.0001) %MON time_tsnumber                =                     0
(PID.TID 0000.0001) %MON time_secondsf                =   0.0000000000000E+00
(PID.TID 0000.0001) %MON dynstat_eta_max              =   0.0000000000000E+00
(PID.TID 0000.0001) %MON dynstat_eta_min              =   0.0000000000000E+00
(PID.TID 0000.0001) %MON dynstat_eta_mean             =   0.0000000000000E+00
(PID.TID 0000.0001) %MON dynstat_eta_sd               =   0.0000000000000E+00
(PID.TID 0000.0001) %MON dynstat_eta_del2             =   0.0000000000000E+00
(PID.TID 0000.0001) %MON dynstat_uvel_max             =   0.0000000000000E+00
(PID.TID 0000.0001) %MON dynstat_uvel_min             =   0.0000000000000E+00
(PID.TID 0000.0001) %MON dynstat_uvel_mean            =   0.0000000000000E+00
(PID.TID 0000.0001) %MON dynstat_uvel_sd              =   0.0000000000000E+00
(PID.TID 0000.0001) %MON dynstat_uvel_del2            =   0.0000000000000E+00
(PID.TID 0000.0001) %MON dynstat_vvel_max             =   0.0000000000000E+00
(PID.TID 0000.0001) %MON dynstat_vvel_min             =   0.0000000000000E+00
(PID.TID 0000.0001) %MON dynstat_vvel_mean            =   0.0000000000000E+00
(PID.TID 0000.0001) %MON dynstat_vvel_sd              =   0.0000000000000E+00
(PID.TID 0000.0001) %MON dynstat_vvel_del2            =   0.0000000000000E+00
(PID.TID 0000.0001) %MON dynstat_wvel_max             =   0.0000000000000E+00
(PID.TID 0000.0001) %MON dynstat_wvel_min             =   0.0000000000000E+00
(PID.TID 0000.0001) %MON dynstat_wvel_mean            =   0.0000000000000E+00
(PID.TID 0000.0001) %MON dynstat_wvel_sd              =   0.0000000000000E+00
(PID.TID 0000.0001) %MON dynstat_wvel_del2            =   0.0000000000000E+00
(PID.TID 0000.0001) %MON dynstat_theta_max            =   2.9733388900757E+01
(PID.TID 0000.0001) %MON dynstat_theta_min            =  -1.9000000000000E+00
(PID.TID 0000.0001) %MON dynstat_theta_mean           =   3.6197074666129E+00
(PID.TID 0000.0001) %MON dynstat_theta_sd             =   4.4174614518568E+00
(PID.TID 0000.0001) %MON dynstat_theta_del2           =   5.6229722638211E-03
(PID.TID 0000.0001) %MON dynstat_salt_max             =   3.7475627899170E+01
(PID.TID 0000.0001) %MON dynstat_salt_min             =   2.9752769470215E+01
(PID.TID 0000.0001) %MON dynstat_salt_mean            =   3.4718006161475E+01
(PID.TID 0000.0001) %MON dynstat_salt_sd              =   2.9628819587990E-01
(PID.TID 0000.0001) %MON dynstat_salt_del2            =   1.0127003139695E-03
(PID.TID 0000.0001) %MON dynstat_sst_max              =   2.9733388900757E+01
(PID.TID 0000.0001) %MON dynstat_sst_min              =  -1.9000000000000E+00
(PID.TID 0000.0001) %MON dynstat_sst_mean             =   1.8484768169451E+01
(PID.TID 0000.0001) %MON dynstat_sst_sd               =   9.1795873467430E+00
(PID.TID 0000.0001) %MON dynstat_sst_del2             =   2.7217991810411E-02
(PID.TID 0000.0001) %MON dynstat_sss_max              =   3.7475627899170E+01
(PID.TID 0000.0001) %MON dynstat_sss_min              =   2.9752769470215E+01
(PID.TID 0000.0001) %MON dynstat_sss_mean             =   3.4849925275207E+01
(PID.TID 0000.0001) %MON dynstat_sss_sd               =   9.6344930396289E-01
(PID.TID 0000.0001) %MON dynstat_sss_del2             =   8.0490524880020E-03
(PID.TID 0000.0001) %MON forcing_qnet_max             =   4.4161361694336E+02
(PID.TID 0000.0001) %MON forcing_qnet_min             =  -1.8132531738281E+02
(PID.TID 0000.0001) %MON forcing_qnet_mean            =  -1.6512526001044E+01
(PID.TID 0000.0001) %MON forcing_qnet_sd              =   1.0987288293460E+02
(PID.TID 0000.0001) %MON forcing_qnet_del2            =   1.0245701543512E+00
(PID.TID 0000.0001) %MON forcing_qsw_max              =   0.0000000000000E+00
(PID.TID 0000.0001) %MON forcing_qsw_min              =   0.0000000000000E+00
(PID.TID 0000.0001) %MON forcing_qsw_mean             =   0.0000000000000E+00
(PID.TID 0000.0001) %MON forcing_qsw_sd               =   0.0000000000000E+00
(PID.TID 0000.0001) %MON forcing_qsw_del2             =   0.0000000000000E+00
(PID.TID 0000.0001) %MON forcing_empmr_max            =   8.2174238968946E-05
(PID.TID 0000.0001) %MON forcing_empmr_min            =  -7.6155956207913E-05
(PID.TID 0000.0001) %MON forcing_empmr_mean           =   9.2293706211063E-07
(PID.TID 0000.0001) %MON forcing_empmr_sd             =   2.8800050217957E-05
(PID.TID 0000.0001) %MON forcing_empmr_del2           =   3.6757632549621E-07
(PID.TID 0000.0001) %MON forcing_fu_max               =   2.7877888083458E-01
(PID.TID 0000.0001) %MON forcing_fu_min               =  -1.7088057100773E-01
(PID.TID 0000.0001) %MON forcing_fu_mean              =   1.6001735152566E-02
(PID.TID 0000.0001) %MON forcing_fu_sd                =   9.1062350670783E-02
(PID.TID 0000.0001) %MON forcing_fu_del2              =   7.2483493833855E-04
(PID.TID 0000.0001) %MON forcing_fv_max               =   2.3312132060528E-01
(PID.TID 0000.0001) %MON forcing_fv_min               =  -1.7813690006733E-01
(PID.TID 0000.0001) %MON forcing_fv_mean              =  -5.2588977395051E-03
(PID.TID 0000.0001) %MON forcing_fv_sd                =   4.8248606070107E-02
(PID.TID 0000.0001) %MON forcing_fv_del2              =   4.9948324922575E-04
(PID.TID 0000.0001) %MON trAdv_CFL_u_max              =   0.0000000000000E+00
(PID.TID 0000.0001) %MON trAdv_CFL_v_max              =   0.0000000000000E+00
(PID.TID 0000.0001) %MON trAdv_CFL_w_max              =   0.0000000000000E+00
(PID.TID 0000.0001) %MON advcfl_uvel_max              =   0.0000000000000E+00
(PID.TID 0000.0001) %MON advcfl_vvel_max              =   0.0000000000000E+00
(PID.TID 0000.0001) %MON advcfl_wvel_max              =   0.0000000000000E+00
(PID.TID 0000.0001) %MON advcfl_W_hf_max              =   0.0000000000000E+00
(PID.TID 0000.0001) %MON pe_b_mean                    =   0.0000000000000E+00
(PID.TID 0000.0001) %MON ke_max                       =   0.0000000000000E+00
(PID.TID 0000.0001) %MON ke_mean                      =   0.0000000000000E+00
(PID.TID 0000.0001) %MON ke_vol                       =   1.3226782436723E+18
(PID.TID 0000.0001) %MON vort_r_min                   =   0.0000000000000E+00
(PID.TID 0000.0001) %MON vort_r_max                   =   0.0000000000000E+00
(PID.TID 0000.0001) %MON vort_a_mean                  =  -2.5274807396949E-05
(PID.TID 0000.0001) %MON vort_a_sd                    =   7.3604350271441E-05
(PID.TID 0000.0001) %MON vort_p_mean                  =  -3.1845655798840E-05
(PID.TID 0000.0001) %MON vort_p_sd                    =   1.3162570071703E-04
(PID.TID 0000.0001) %MON surfExpan_theta_mean         =   0.0000000000000E+00
(PID.TID 0000.0001) %MON surfExpan_salt_mean          =   0.0000000000000E+00
(PID.TID 0000.0001) // =======================================================
(PID.TID 0000.0001) // End MONITOR dynamic field statistics
(PID.TID 0000.0001) // =======================================================
(PID.TID 0000.0001) // =======================================================
(PID.TID 0000.0001) // Field Current uVel   at iteration          0
(PID.TID 0000.0001) // CMIN =          1.000000000000000E+32
(PID.TID 0000.0001) // CMAX =         -1.000000000000000E+32
(PID.TID 0000.0001) // CINT =          0.000000000000000E+00
(PID.TID 0000.0001) // SYMBOLS (CMIN->CMAX): -abcdefghijklmnopqrstuvwxyz+
(PID.TID 0000.0001) //                  0.0: .
(PID.TID 0000.0001) // RANGE I (Lo:Hi:Step):(     1:    90:     1)
(PID.TID 0000.0001) // RANGE J (Lo:Hi:Step):(    40:     1:    -1)
(PID.TID 0000.0001) // RANGE K (Lo:Hi:Step):(   1:   1:   1)
(PID.TID 0000.0001) // =======================================================
(PID.TID 0000.0001) // =======================================================
(PID.TID 0000.0001) // END OF FIELD                                          =
(PID.TID 0000.0001) // =======================================================
(PID.TID 0000.0001) 
(PID.TID 0000.0001) // =======================================================
(PID.TID 0000.0001) // Field Current vVel   at iteration          0
(PID.TID 0000.0001) // CMIN =          1.000000000000000E+32
(PID.TID 0000.0001) // CMAX =         -1.000000000000000E+32
(PID.TID 0000.0001) // CINT =          0.000000000000000E+00
(PID.TID 0000.0001) // SYMBOLS (CMIN->CMAX): -abcdefghijklmnopqrstuvwxyz+
(PID.TID 0000.0001) //                  0.0: .
(PID.TID 0000.0001) // RANGE I (Lo:Hi:Step):(     1:    90:     1)
(PID.TID 0000.0001) // RANGE J (Lo:Hi:Step):(    40:     1:    -1)
(PID.TID 0000.0001) // RANGE K (Lo:Hi:Step):(   1:   1:   1)
(PID.TID 0000.0001) // =======================================================
(PID.TID 0000.0001) // =======================================================
(PID.TID 0000.0001) // END OF FIELD                                          =
(PID.TID 0000.0001) // =======================================================
(PID.TID 0000.0001) 
(PID.TID 0000.0001) // =======================================================
(PID.TID 0000.0001) // Field Current theta  at iteration          0
(PID.TID 0000.0001) // CMIN =         -1.900000000000000E+00
(PID.TID 0000.0001) // CMAX =          2.973338890075684E+01
(PID.TID 0000.0001) // CINT =          1.171606996324327E+00
(PID.TID 0000.0001) // SYMBOLS (CMIN->CMAX): -abcdefghijklmnopqrstuvwxyz+
(PID.TID 0000.0001) //                  0.0: .
(PID.TID 0000.0001) // RANGE I (Lo:Hi:Step):(     1:    90:     1)
(PID.TID 0000.0001) // RANGE J (Lo:Hi:Step):(    40:     1:    -1)
(PID.TID 0000.0001) // RANGE K (Lo:Hi:Step):(   1:   1:   1)
(PID.TID 0000.0001) // =======================================================
(PID.TID 0000.0001) K =   1
(PID.TID 0000.0001)                I=10      I=20      I=30      I=40      I=50      I=60      I=70      I=80      I=90
(PID.TID 0000.0001) |--J--|123456789|123456789|123456789|123456789|123456789|123456789|123456789|123456789|123456789|
(PID.TID 0000.0001)     40 bccdd.baa----abdedd..................................................................bbbbb
(PID.TID 0000.0001)     39 ccdddddccbbbaa...ed.....................................................----........bbbbbb
(PID.TID 0000.0001)     38 fffgfedeedddc...........................................................-----......cbbbcde
(PID.TID 0000.0001)     37 ghh..................................................................bc...bbc...edeed.defg
(PID.TID 0000.0001)     36 hh.........................................ddcb....................dcccbabccdd.eefghhihhih
(PID.TID 0000.0001)     35 hh.................................aaab..dddeddd...ffggg...........ccc....ddeeeffghijjjjih
(PID.TID 0000.0001)     34 ...................................babb.deeeeeee.ffffgghh..................ccdffghijkkkj..
(PID.TID 0000.0001)     33 ....................................accdddeeeeefffffgghhiii.................bcfijkkllllkk.
(PID.TID 0000.0001)     32 ....................................bdddeffgffgghhhhhiiijjj................dccglmnmmmmlll.
(PID.TID 0000.0001)     31 ....................................fghiiiijjjjjjkkkkklllkk..............ikkjjmooooonnmm..
(PID.TID 0000.0001)     30 ...................................mmmnmmmmmmmmmmmmmnnnnnmm............moqrrrqrqqqpppooo..
(PID.TID 0000.0001)     29 .................................pqqqqqpppppppppoppoppppponm...........ssssssrrrrrqqqqpp..
(PID.TID 0000.0001)     28 ...............................prssssrrrsssrrrrrrrrrrrrrqqpoo.........uttssstssrssrrrqqq..
(PID.TID 0000.0001)     27 ..............vv..............stuttuuuuutuuuuuuuuuuttttssrrqqq...stuu.vvvuuuuutttttsss....
(PID.TID 0000.0001)     26 ..............vvv...........uuvvvvvwwwwwwwwvvvvvvvvvuuutttsssttv.uuvxxwwwwwwvvvvuuttsr....
(PID.TID 0000.0001)     25 ..............wwwx...xxx...vvvxxxxxyyxxxxxxxxxwwwwwvvvvvuuuuuvwwx...xxxxxxwwwwwwvvutsr....
(PID.TID 0000.0001)     24 ............wwwwxyy.xxyy...wxx.yyyyyyyyyyyxxxxxxxxwwwwwwwvvwwxxyywww.xxxxxxxxxxwwwvvur....
(PID.TID 0000.0001)     23 ............xxxyyyz.xyyy...xxx..yyyyzzyyyyyyyyxxxxxxxxxwwwwwxxxwwwwwx....vwxxxxwwwwwvu....
(PID.TID 0000.0001)     22 w...........xxyyyzyyyyyz...xx.yyzzzzzzzzzzzzzyyzyyyyyyxxwwxxxxwvvvwwxw......yyyyxxxxxxwxxw
(PID.TID 0000.0001)     21 xxx........xxxxyyzzzzzzz+.....zyzzzzzzz++zzzzyyyyyyyyxxwvvwwwwvvvvvvvu........yyyyyyyyyxxx
(PID.TID 0000.0001)     20 xww.......xyyyyxyyzzzzzz+......z.zzzzz+++zzzzzzyyyyyxxxxwvwxwvuuuuuuut.........yyyyxxxxwww
(PID.TID 0000.0001)     19 vvv.......yyyyxwwxyzyyzzzzz...zzz.....++++++z++z+zzzyyyyxxxxwwvvvvvvvu...........yyxxxwwww
(PID.TID 0000.0001)     18 uut.......zzyyywwxyzyyyyzzyzzzzzz...z+z++++zz+++++++zzzyyyyxxwwwvvvvvtt..........yyxxwvvwv
(PID.TID 0000.0001)     17 uus.......z.yyyyyyxyzzyyyyyyyzz.....yzzzzzzzzzzzzzzzzzzyyyyxxwwvuuvvuut.........yyyxxwttvu
(PID.TID 0000.0001)     16 utr......yy.zyyyyxxxxxxxwxxxxy.......yyyyyyyyyyyyyyyyyyyyyyyxxwvvvuuutts........xyyyxwvuuu
(PID.TID 0000.0001)     15 ttrr....xxx.xxxwxwwwwvwwvvvww.........xwxxxxxxxxxxxxxxxxxyyyxwwwvvuttssrr......wxxxxxwwvuu
(PID.TID 0000.0001)     14 ttsq....xyxwwxwvwwwvutuuuuuuu.........wwvwwwwvwvvwwwvwvvwwwwwwvvvuuutssrr.....vwwwwwwwvvvu
(PID.TID 0000.0001)     13 tttr....wwwvvvtttuuuutttssttt.........vvvuuuuuuutttttuuuuuvwwwuuuttttssrr....uvvvvvvvvvvut
(PID.TID 0000.0001)     12 sssssstttutssssrrrrrstrqqrrssqqrrq....uuttssssrrrrrrrrrrrstttssssrssrrqp.....uuuttssttssss
(PID.TID 0000.0001)     11 poprsssrqqqqqrqppooopqpoppppppppppp..sssrrr.rqpppqqqqppppqqqoppqqqqrqqpp....prsrqqqqqppppq
(PID.TID 0000.0001)     10 lllmoooonmnnmnnnnmmmmmmlmmlllmnnnnon.qqqppp.ppppppooooooooonmnnnonnooooo..nmoponnmnnnnnmll
(PID.TID 0000.0001)      9 ihhiiiihhhhhhiiihiiiiihhhiiiijjkkmnllnnnnn.mmmmnnnnmmmmnnmmlklllllklllll.mllmmllkjiijjihhi
(PID.TID 0000.0001)      8 eeeeeeeedefgggffeeffggffffggghiiiijjijklklkkkkkkkklllkkkkjjiiijkjjjjjjkj.kkjjiihggffffedde
(PID.TID 0000.0001)      7 cccccddeedddefeddddddddddefeefffffgggghiiiiiijjjihhgggghhhhhghhhhhhhiiiihiihhgfeddddddcccc
(PID.TID 0000.0001)      6 abbcccddcccccdddddccdddddddccddddddeeeeffggggghhgeddddddeeeeeeefggggghggggffeedccbbbbbbbba
(PID.TID 0000.0001)      5 bbbcccccccccccccccccccccbbccccdddddddcccddeeddeedcbbbbbbccccccdddeeeeeddddddccbbbbaaaaaaab
(PID.TID 0000.0001)      4 bbbbbbbaaabbbbbbbbbbbbaabbabbbbcbbbbbbbbbbbbbbbbbbbabbaaabbbbbbbbbbbbbbbbb..a--aaabbbaaabb
(PID.TID 0000.0001)      3 bbbbaaa-a-............................bbaaaaaaaaaaaaaaaaaaaaaaaaaaaaaaaab..aaaaaaaabbbaaaa
(PID.TID 0000.0001)      2 ..........................................baaaaaaaaaaaa-------aa..aaaa.....aaaaaaaaaaaa...
(PID.TID 0000.0001)      1 ..........................................................................................
(PID.TID 0000.0001) // =======================================================
(PID.TID 0000.0001) // END OF FIELD                                          =
(PID.TID 0000.0001) // =======================================================
(PID.TID 0000.0001) 
(PID.TID 0000.0001) // =======================================================
(PID.TID 0000.0001) // Field Current etaN   at iteration          0
(PID.TID 0000.0001) // CMIN =          1.000000000000000E+32
(PID.TID 0000.0001) // CMAX =         -1.000000000000000E+32
(PID.TID 0000.0001) // CINT =          0.000000000000000E+00
(PID.TID 0000.0001) // SYMBOLS (CMIN->CMAX): -abcdefghijklmnopqrstuvwxyz+
(PID.TID 0000.0001) //                  0.0: .
(PID.TID 0000.0001) // RANGE I (Lo:Hi:Step):(    -1:    92:     1)
(PID.TID 0000.0001) // RANGE J (Lo:Hi:Step):(    42:    -1:    -1)
(PID.TID 0000.0001) // RANGE K (Lo:Hi:Step):(   1:   1:   1)
(PID.TID 0000.0001) // =======================================================
(PID.TID 0000.0001) // =======================================================
(PID.TID 0000.0001) // END OF FIELD                                          =
(PID.TID 0000.0001) // =======================================================
(PID.TID 0000.0001) 
(PID.TID 0000.0001)  MDS_WRITE_FIELD: it,rec,kS,kL,kH=       0     1  15   1  15 file=U.0000000000
(PID.TID 0000.0001)  MDS_WRITE_FIELD: it,rec,kS,kL,kH=       0     1  15   1  15 file=V.0000000000
(PID.TID 0000.0001)  MDS_WRITE_FIELD: it,rec,kS,kL,kH=       0     1  15   1  15 file=T.0000000000
(PID.TID 0000.0001)  MDS_WRITE_FIELD: it,rec,kS,kL,kH=       0     1  15   1  15 file=S.0000000000
(PID.TID 0000.0001)  MDS_WRITE_FIELD: it,rec,kS,kL,kH=       0     1   1   1   1 file=Eta.0000000000
(PID.TID 0000.0001)  MDS_WRITE_FIELD: it,rec,kS,kL,kH=       0     1  15   1  15 file=W.0000000000
(PID.TID 0000.0001)  MDS_WRITE_FIELD: it,rec,kS,kL,kH=       0     1   1   1   1 file=ETAN_initial.0000000000
(PID.TID 0000.0001)  MDS_WRITE_FIELD: it,rec,kS,kL,kH=       0     1  15   1  15 file=THETA_initial.0000000000
(PID.TID 0000.0001)  MDS_WRITE_FIELD: it,rec,kS,kL,kH=       0     1  15   1  15 file=SALT_initial.0000000000
(PID.TID 0000.0001)  MDS_WRITE_FIELD: it,rec,kS,kL,kH=       0     1  15   1  15 file=UVEL_initial.0000000000
(PID.TID 0000.0001)  MDS_WRITE_FIELD: it,rec,kS,kL,kH=       0     1  15   1  15 file=VVEL_initial.0000000000
 EXTERNAL_FIELDS_LOAD,         0 : iP,iLd,i0,i1=   12    0   12    1 ; Wght=  0.5000000000  0.5000000000
 EXTERNAL_FIELDS_LOAD, it=         0 : Reading new data, i0,i1=   12    1 (prev=   12    0 )
(PID.TID 0000.0001)  MDS_READ_FIELD: opening global file: trenberth_taux.bin
(PID.TID 0000.0001)  MDS_READ_FIELD: opening global file: trenberth_taux.bin
(PID.TID 0000.0001)  MDS_READ_FIELD: opening global file: trenberth_tauy.bin
(PID.TID 0000.0001)  MDS_READ_FIELD: opening global file: trenberth_tauy.bin
(PID.TID 0000.0001)  MDS_READ_FIELD: opening global file: ncep_qnet.bin
(PID.TID 0000.0001)  MDS_READ_FIELD: opening global file: ncep_qnet.bin
(PID.TID 0000.0001)  MDS_READ_FIELD: opening global file: ncep_emp.bin
(PID.TID 0000.0001)  MDS_READ_FIELD: opening global file: ncep_emp.bin
(PID.TID 0000.0001)  MDS_READ_FIELD: opening global file: lev_sst.bin
(PID.TID 0000.0001)  MDS_READ_FIELD: opening global file: lev_sst.bin
(PID.TID 0000.0001)  MDS_READ_FIELD: opening global file: lev_sss.bin
(PID.TID 0000.0001)  MDS_READ_FIELD: opening global file: lev_sss.bin
 EXTERNAL_FIELDS_LOAD: (fu0,1),fu,fv= -4.5368E-02 -3.5633E-02 -4.0500E-02 -6.3753E-02
 EXTERNAL_FIELDS_LOAD: SST,SSS,Q,E-P=  5.3151E-02  3.4364E+01  2.6510E+02  1.0843E-05
DEBUG_STATS_RL:          Uvel (THERMODYNAMICS)  min=  0.00000000000000E+00
DEBUG_STATS_RL:          Uvel (THERMODYNAMICS)  max=  0.00000000000000E+00
DEBUG_STATS_RL:          Uvel (THERMODYNAMICS) mean=  0.00000000000000E+00
DEBUG_STATS_RL:          Uvel (THERMODYNAMICS) S.D.=  0.00000000000000E+00
DEBUG_STATS_RL:          Vvel (THERMODYNAMICS)  min=  0.00000000000000E+00
DEBUG_STATS_RL:          Vvel (THERMODYNAMICS)  max=  0.00000000000000E+00
DEBUG_STATS_RL:          Vvel (THERMODYNAMICS) mean=  0.00000000000000E+00
DEBUG_STATS_RL:          Vvel (THERMODYNAMICS) S.D.=  0.00000000000000E+00
DEBUG_STATS_RL:          Wvel (THERMODYNAMICS)  min=  0.00000000000000E+00
DEBUG_STATS_RL:          Wvel (THERMODYNAMICS)  max=  0.00000000000000E+00
DEBUG_STATS_RL:          Wvel (THERMODYNAMICS) mean=  0.00000000000000E+00
DEBUG_STATS_RL:          Wvel (THERMODYNAMICS) S.D.=  0.00000000000000E+00
DEBUG_STATS_RL:         Theta (THERMODYNAMICS)  min= -1.90811598398761E+00
DEBUG_STATS_RL:         Theta (THERMODYNAMICS)  max=  2.97516656964329E+01
DEBUG_STATS_RL:         Theta (THERMODYNAMICS) mean=  5.88786951750920E+00
DEBUG_STATS_RL:         Theta (THERMODYNAMICS) S.D.=  6.86667613916429E+00
DEBUG_STATS_RL:          Salt (THERMODYNAMICS)  min=  2.97558517584708E+01
DEBUG_STATS_RL:          Salt (THERMODYNAMICS)  max=  3.74680670349469E+01
DEBUG_STATS_RL:          Salt (THERMODYNAMICS) mean=  3.47210326892254E+01
DEBUG_STATS_RL:          Salt (THERMODYNAMICS) S.D.=  4.86088421175185E-01
DEBUG_STATS_RL:         GtNm1 (THERMODYNAMICS)  min= -1.97902216815528E-06
DEBUG_STATS_RL:         GtNm1 (THERMODYNAMICS)  max=  1.36721340415948E-06
DEBUG_STATS_RL:         GtNm1 (THERMODYNAMICS) mean=  9.84644793659462E-09
DEBUG_STATS_RL:         GtNm1 (THERMODYNAMICS) S.D.=  1.68007591709518E-07
DEBUG_STATS_RL:         GsNm1 (THERMODYNAMICS)  min= -4.06273991401262E-07
DEBUG_STATS_RL:         GsNm1 (THERMODYNAMICS)  max=  2.29531573928472E-07
DEBUG_STATS_RL:         GsNm1 (THERMODYNAMICS) mean= -6.18742911958726E-11
DEBUG_STATS_RL:         GsNm1 (THERMODYNAMICS) S.D.=  7.23701807647342E-09
DEBUG_STATS_RL:                EtaN (DYNAMICS)  min=  0.00000000000000E+00
DEBUG_STATS_RL:                EtaN (DYNAMICS)  max=  0.00000000000000E+00
DEBUG_STATS_RL:                EtaN (DYNAMICS) mean=  0.00000000000000E+00
DEBUG_STATS_RL:                EtaN (DYNAMICS) S.D.=  0.00000000000000E+00
DEBUG_STATS_RL:                Uvel (DYNAMICS)  min=  0.00000000000000E+00
DEBUG_STATS_RL:                Uvel (DYNAMICS)  max=  0.00000000000000E+00
DEBUG_STATS_RL:                Uvel (DYNAMICS) mean=  0.00000000000000E+00
DEBUG_STATS_RL:                Uvel (DYNAMICS) S.D.=  0.00000000000000E+00
DEBUG_STATS_RL:                Vvel (DYNAMICS)  min=  0.00000000000000E+00
DEBUG_STATS_RL:                Vvel (DYNAMICS)  max=  0.00000000000000E+00
DEBUG_STATS_RL:                Vvel (DYNAMICS) mean=  0.00000000000000E+00
DEBUG_STATS_RL:                Vvel (DYNAMICS) S.D.=  0.00000000000000E+00
DEBUG_STATS_RL:                Wvel (DYNAMICS)  min=  0.00000000000000E+00
DEBUG_STATS_RL:                Wvel (DYNAMICS)  max=  0.00000000000000E+00
DEBUG_STATS_RL:                Wvel (DYNAMICS) mean=  0.00000000000000E+00
DEBUG_STATS_RL:                Wvel (DYNAMICS) S.D.=  0.00000000000000E+00
DEBUG_STATS_RL:               Theta (DYNAMICS)  min= -1.90811598398761E+00
DEBUG_STATS_RL:               Theta (DYNAMICS)  max=  2.97516656964329E+01
DEBUG_STATS_RL:               Theta (DYNAMICS) mean=  5.88786951750920E+00
DEBUG_STATS_RL:               Theta (DYNAMICS) S.D.=  6.86667613916429E+00
DEBUG_STATS_RL:                Salt (DYNAMICS)  min=  2.97558517584708E+01
DEBUG_STATS_RL:                Salt (DYNAMICS)  max=  3.74680670349469E+01
DEBUG_STATS_RL:                Salt (DYNAMICS) mean=  3.47210326892254E+01
DEBUG_STATS_RL:                Salt (DYNAMICS) S.D.=  4.86088421175185E-01
DEBUG_STATS_RL:                  Gu (DYNAMICS)  min= -1.88463941327122E-02
DEBUG_STATS_RL:                  Gu (DYNAMICS)  max=  1.79558089566906E-02
DEBUG_STATS_RL:                  Gu (DYNAMICS) mean= -4.92170263091562E-04
DEBUG_STATS_RL:                  Gu (DYNAMICS) S.D.=  2.60942615783521E-03
DEBUG_STATS_RL:                  Gv (DYNAMICS)  min= -2.24604397806284E-02
DEBUG_STATS_RL:                  Gv (DYNAMICS)  max=  3.16924647698746E-02
DEBUG_STATS_RL:                  Gv (DYNAMICS) mean=  1.42637173423644E-03
DEBUG_STATS_RL:                  Gv (DYNAMICS) S.D.=  5.24528348826057E-03
DEBUG_STATS_RL:               GuNm1 (DYNAMICS)  min= -1.03714184811086E-05
DEBUG_STATS_RL:               GuNm1 (DYNAMICS)  max=  1.05704223291197E-05
DEBUG_STATS_RL:               GuNm1 (DYNAMICS) mean= -3.73179039296287E-08
DEBUG_STATS_RL:               GuNm1 (DYNAMICS) S.D.=  1.41970631831902E-06
DEBUG_STATS_RL:               GvNm1 (DYNAMICS)  min= -1.23968624569376E-05
DEBUG_STATS_RL:               GvNm1 (DYNAMICS)  max=  1.76875466256686E-05
DEBUG_STATS_RL:               GvNm1 (DYNAMICS) mean=  7.84919304799918E-07
DEBUG_STATS_RL:               GvNm1 (DYNAMICS) S.D.=  2.90104504215427E-06
DEBUG_STATS_RL:               GtNm1 (DYNAMICS)  min= -1.97902216815528E-06
DEBUG_STATS_RL:               GtNm1 (DYNAMICS)  max=  1.36721340415948E-06
DEBUG_STATS_RL:               GtNm1 (DYNAMICS) mean=  9.84644793659462E-09
DEBUG_STATS_RL:               GtNm1 (DYNAMICS) S.D.=  1.68007591709518E-07
DEBUG_STATS_RL:               GsNm1 (DYNAMICS)  min= -4.06273991401262E-07
DEBUG_STATS_RL:               GsNm1 (DYNAMICS)  max=  2.29531573928472E-07
DEBUG_STATS_RL:               GsNm1 (DYNAMICS) mean= -6.18742911958726E-11
DEBUG_STATS_RL:               GsNm1 (DYNAMICS) S.D.=  7.23701807647342E-09
(PID.TID 0000.0001) SOLVE_FOR_PRESSURE: putPmEinXvector =    F
DEBUG_STATS_RL:    cg2d_b (SOLVE_FOR_PRESSURE)  min= -3.88119248468625E+04
DEBUG_STATS_RL:    cg2d_b (SOLVE_FOR_PRESSURE)  max=  2.08342846878179E+04
DEBUG_STATS_RL:    cg2d_b (SOLVE_FOR_PRESSURE) mean=  6.21173429299606E-02
DEBUG_STATS_RL:    cg2d_b (SOLVE_FOR_PRESSURE) S.D.=  4.96776128533401E+03
 cg2d: Sum(rhs),rhsMax =   3.70508933663496E-03  2.54927113998744E+00
(PID.TID 0000.0001)  cg2d: iter=     1 ; resid.=  2.38343646543680E+00
(PID.TID 0000.0001)  cg2d: iter=     2 ; resid.=  1.64553289021546E+00
(PID.TID 0000.0001)  cg2d: iter=     3 ; resid.=  1.31731085764948E+00
(PID.TID 0000.0001)  cg2d: iter=     4 ; resid.=  1.04564492694376E+00
(PID.TID 0000.0001)  cg2d: iter=     5 ; resid.=  8.61432541864343E-01
(PID.TID 0000.0001)  cg2d: iter=     6 ; resid.=  7.08936816956864E-01
(PID.TID 0000.0001)  cg2d: iter=     7 ; resid.=  5.99672902970714E-01
(PID.TID 0000.0001)  cg2d: iter=     8 ; resid.=  5.18494552419156E-01
(PID.TID 0000.0001)  cg2d: iter=     9 ; resid.=  4.03759345215046E-01
(PID.TID 0000.0001)  cg2d: iter=    10 ; resid.=  3.29907647451916E-01
(PID.TID 0000.0001)  cg2d: iter=    11 ; resid.=  2.98713762957456E-01
(PID.TID 0000.0001)  cg2d: iter=    12 ; resid.=  2.73922661251815E-01
(PID.TID 0000.0001)  cg2d: iter=    13 ; resid.=  2.39857216163276E-01
(PID.TID 0000.0001)  cg2d: iter=    14 ; resid.=  2.02096160535591E-01
(PID.TID 0000.0001)  cg2d: iter=    15 ; resid.=  1.78566822056842E-01
(PID.TID 0000.0001)  cg2d: iter=    16 ; resid.=  1.57281837185055E-01
(PID.TID 0000.0001)  cg2d: iter=    17 ; resid.=  1.49332553444199E-01
(PID.TID 0000.0001)  cg2d: iter=    18 ; resid.=  1.39177736578575E-01
(PID.TID 0000.0001)  cg2d: iter=    19 ; resid.=  1.16021019428996E-01
(PID.TID 0000.0001)  cg2d: iter=    20 ; resid.=  8.52415272444822E-02
(PID.TID 0000.0001)  cg2d: iter=    21 ; resid.=  6.58915350591917E-02
(PID.TID 0000.0001)  cg2d: iter=    22 ; resid.=  4.96836083734921E-02
(PID.TID 0000.0001)  cg2d: iter=    23 ; resid.=  3.38967508769628E-02
(PID.TID 0000.0001)  cg2d: iter=    24 ; resid.=  2.62127212994744E-02
(PID.TID 0000.0001)  cg2d: iter=    25 ; resid.=  2.01948312048181E-02
(PID.TID 0000.0001)  cg2d: iter=    26 ; resid.=  1.68439708673889E-02
(PID.TID 0000.0001)  cg2d: iter=    27 ; resid.=  1.36226244838434E-02
(PID.TID 0000.0001)  cg2d: iter=    28 ; resid.=  1.13377800634423E-02
(PID.TID 0000.0001)  cg2d: iter=    29 ; resid.=  9.76418528452080E-03
(PID.TID 0000.0001)  cg2d: iter=    30 ; resid.=  8.21201600900686E-03
(PID.TID 0000.0001)  cg2d: iter=    31 ; resid.=  6.93829390625480E-03
(PID.TID 0000.0001)  cg2d: iter=    32 ; resid.=  5.64403911051307E-03
(PID.TID 0000.0001)  cg2d: iter=    33 ; resid.=  4.38877651762413E-03
(PID.TID 0000.0001)  cg2d: iter=    34 ; resid.=  3.42026974924583E-03
(PID.TID 0000.0001)  cg2d: iter=    35 ; resid.=  2.76530041039289E-03
(PID.TID 0000.0001)  cg2d: iter=    36 ; resid.=  2.19930274519261E-03
(PID.TID 0000.0001)  cg2d: iter=    37 ; resid.=  1.71937907941594E-03
(PID.TID 0000.0001)  cg2d: iter=    38 ; resid.=  1.45994388242206E-03
(PID.TID 0000.0001)  cg2d: iter=    39 ; resid.=  1.30469979106551E-03
(PID.TID 0000.0001)  cg2d: iter=    40 ; resid.=  1.12807812962027E-03
(PID.TID 0000.0001)  cg2d: iter=    41 ; resid.=  9.12125648339374E-04
(PID.TID 0000.0001)  cg2d: iter=    42 ; resid.=  7.31322667016682E-04
(PID.TID 0000.0001)  cg2d: iter=    43 ; resid.=  6.12211567243358E-04
(PID.TID 0000.0001)  cg2d: iter=    44 ; resid.=  4.79226002894034E-04
(PID.TID 0000.0001)  cg2d: iter=    45 ; resid.=  4.02760879211508E-04
(PID.TID 0000.0001)  cg2d: iter=    46 ; resid.=  3.32542608984947E-04
(PID.TID 0000.0001)  cg2d: iter=    47 ; resid.=  2.86273682978859E-04
(PID.TID 0000.0001)  cg2d: iter=    48 ; resid.=  2.49926106748673E-04
(PID.TID 0000.0001)  cg2d: iter=    49 ; resid.=  1.95197203797897E-04
(PID.TID 0000.0001)  cg2d: iter=    50 ; resid.=  1.62945917189247E-04
(PID.TID 0000.0001)  cg2d: iter=    51 ; resid.=  1.27925449887437E-04
(PID.TID 0000.0001)  cg2d: iter=    52 ; resid.=  1.11598292067533E-04
(PID.TID 0000.0001)  cg2d: iter=    53 ; resid.=  1.08627230313853E-04
(PID.TID 0000.0001)  cg2d: iter=    54 ; resid.=  9.64518102026166E-05
(PID.TID 0000.0001)  cg2d: iter=    55 ; resid.=  7.70401731391717E-05
(PID.TID 0000.0001)  cg2d: iter=    56 ; resid.=  5.77362144332521E-05
(PID.TID 0000.0001)  cg2d: iter=    57 ; resid.=  4.37350396618924E-05
(PID.TID 0000.0001)  cg2d: iter=    58 ; resid.=  3.51600493902572E-05
(PID.TID 0000.0001)  cg2d: iter=    59 ; resid.=  2.92773452359468E-05
(PID.TID 0000.0001)  cg2d: iter=    60 ; resid.=  2.31968062772643E-05
(PID.TID 0000.0001)  cg2d: iter=    61 ; resid.=  1.98618800002699E-05
(PID.TID 0000.0001)  cg2d: iter=    62 ; resid.=  1.63897566534421E-05
(PID.TID 0000.0001)  cg2d: iter=    63 ; resid.=  1.33116395161955E-05
(PID.TID 0000.0001)  cg2d: iter=    64 ; resid.=  1.04795531105878E-05
(PID.TID 0000.0001)  cg2d: iter=    65 ; resid.=  8.64913416261349E-06
(PID.TID 0000.0001)  cg2d: iter=    66 ; resid.=  6.95075040878936E-06
(PID.TID 0000.0001)  cg2d: iter=    67 ; resid.=  6.09213700918348E-06
(PID.TID 0000.0001)  cg2d: iter=    68 ; resid.=  4.86208170084666E-06
(PID.TID 0000.0001)  cg2d: iter=    69 ; resid.=  3.56468057139187E-06
(PID.TID 0000.0001)  cg2d: iter=    70 ; resid.=  2.86217833704584E-06
(PID.TID 0000.0001)  cg2d: iter=    71 ; resid.=  2.26299924551857E-06
(PID.TID 0000.0001)  cg2d: iter=    72 ; resid.=  1.86257604386848E-06
(PID.TID 0000.0001)  cg2d: iter=    73 ; resid.=  1.52803484890998E-06
(PID.TID 0000.0001)  cg2d: iter=    74 ; resid.=  1.23129305376080E-06
(PID.TID 0000.0001)  cg2d: iter=    75 ; resid.=  9.68983604992151E-07
(PID.TID 0000.0001)  cg2d: iter=    76 ; resid.=  8.40332512689916E-07
(PID.TID 0000.0001)  cg2d: iter=    77 ; resid.=  6.82674070914141E-07
(PID.TID 0000.0001)  cg2d: iter=    78 ; resid.=  5.47873014853608E-07
(PID.TID 0000.0001)  cg2d: iter=    79 ; resid.=  4.22198676581485E-07
(PID.TID 0000.0001)  cg2d: iter=    80 ; resid.=  3.44495225404575E-07
(PID.TID 0000.0001)  cg2d: iter=    81 ; resid.=  2.84450929890679E-07
(PID.TID 0000.0001)  cg2d: iter=    82 ; resid.=  2.39856536067081E-07
(PID.TID 0000.0001)  cg2d: iter=    83 ; resid.=  1.98042892726902E-07
(PID.TID 0000.0001)  cg2d: iter=    84 ; resid.=  1.56017267032435E-07
(PID.TID 0000.0001)  cg2d: iter=    85 ; resid.=  1.31217330373480E-07
(PID.TID 0000.0001)  cg2d: iter=    86 ; resid.=  1.04869574495986E-07
(PID.TID 0000.0001)  cg2d: iter=    87 ; resid.=  8.95835939473440E-08
(PID.TID 0000.0001)  cg2d: iter=    88 ; resid.=  7.60344149308289E-08
(PID.TID 0000.0001)  cg2d: iter=    89 ; resid.=  6.47740415299042E-08
(PID.TID 0000.0001)  cg2d: iter=    90 ; resid.=  5.59580434136261E-08
(PID.TID 0000.0001)  cg2d: iter=    91 ; resid.=  5.07168325489159E-08
(PID.TID 0000.0001)  cg2d: iter=    92 ; resid.=  4.45024035488229E-08
(PID.TID 0000.0001)  cg2d: iter=    93 ; resid.=  3.46968197704002E-08
(PID.TID 0000.0001)  cg2d: iter=    94 ; resid.=  2.56407402681912E-08
(PID.TID 0000.0001)  cg2d: iter=    95 ; resid.=  1.88257101675793E-08
(PID.TID 0000.0001)  cg2d: iter=    96 ; resid.=  1.41177270415685E-08
(PID.TID 0000.0001)  cg2d: iter=    97 ; resid.=  1.03067786097999E-08
(PID.TID 0000.0001)  cg2d: iter=    98 ; resid.=  7.20624682145264E-09
(PID.TID 0000.0001)  cg2d: iter=    99 ; resid.=  5.44694268090527E-09
(PID.TID 0000.0001)  cg2d: iter=   100 ; resid.=  4.72851603134001E-09
(PID.TID 0000.0001)  cg2d: iter=   101 ; resid.=  4.16172048235345E-09
(PID.TID 0000.0001)  cg2d: iter=   102 ; resid.=  3.25418041210469E-09
(PID.TID 0000.0001)  cg2d: iter=   103 ; resid.=  2.49637892346614E-09
(PID.TID 0000.0001)  cg2d: iter=   104 ; resid.=  2.01752765626404E-09
(PID.TID 0000.0001)  cg2d: iter=   105 ; resid.=  1.59242732473843E-09
(PID.TID 0000.0001)  cg2d: iter=   106 ; resid.=  1.12317507664858E-09
(PID.TID 0000.0001)  cg2d: iter=   107 ; resid.=  8.30642349725304E-10
(PID.TID 0000.0001)  cg2d: iter=   108 ; resid.=  6.84230051541693E-10
(PID.TID 0000.0001)  cg2d: iter=   109 ; resid.=  6.02498282169179E-10
(PID.TID 0000.0001)  cg2d: iter=   110 ; resid.=  5.40994870888769E-10
(PID.TID 0000.0001)  cg2d: iter=   111 ; resid.=  4.44171677289195E-10
(PID.TID 0000.0001)  cg2d: iter=   112 ; resid.=  3.41220292244799E-10
(PID.TID 0000.0001)  cg2d: iter=   113 ; resid.=  2.99079318671011E-10
(PID.TID 0000.0001)  cg2d: iter=   114 ; resid.=  2.45546911486934E-10
(PID.TID 0000.0001)  cg2d: iter=   115 ; resid.=  1.89667078924356E-10
(PID.TID 0000.0001)  cg2d: iter=   116 ; resid.=  1.51032235463081E-10
(PID.TID 0000.0001)  cg2d: iter=   117 ; resid.=  1.23924465176108E-10
(PID.TID 0000.0001)  cg2d: iter=   118 ; resid.=  1.05664408732008E-10
(PID.TID 0000.0001)  cg2d: iter=   119 ; resid.=  9.29294481393047E-11
(PID.TID 0000.0001)  cg2d: iter=   120 ; resid.=  7.31442626992853E-11
(PID.TID 0000.0001)  cg2d: iter=   121 ; resid.=  5.36837910437474E-11
(PID.TID 0000.0001)  cg2d: iter=   122 ; resid.=  3.58522518903503E-11
(PID.TID 0000.0001)  cg2d: iter=   123 ; resid.=  2.53425863329486E-11
(PID.TID 0000.0001)  cg2d: iter=   124 ; resid.=  1.87666662846556E-11
(PID.TID 0000.0001)  cg2d: iter=   125 ; resid.=  1.45748138479283E-11
(PID.TID 0000.0001)  cg2d: iter=   126 ; resid.=  1.09150647808558E-11
(PID.TID 0000.0001)  cg2d: iter=   127 ; resid.=  8.39533505997615E-12
(PID.TID 0000.0001)  cg2d: iter=   128 ; resid.=  6.70552104832707E-12
(PID.TID 0000.0001)  cg2d: iter=   129 ; resid.=  5.29045583165565E-12
(PID.TID 0000.0001)  cg2d: iter=   130 ; resid.=  3.84590658874937E-12
(PID.TID 0000.0001)  cg2d: iter=   131 ; resid.=  2.77528562227978E-12
(PID.TID 0000.0001)  cg2d: iter=   132 ; resid.=  2.13981080106313E-12
(PID.TID 0000.0001)  cg2d: iter=   133 ; resid.=  1.66087877217137E-12
(PID.TID 0000.0001)  cg2d: iter=   134 ; resid.=  1.23847992695304E-12
(PID.TID 0000.0001)  cg2d: iter=   135 ; resid.=  1.01695378370404E-12
(PID.TID 0000.0001)  cg2d: iter=   136 ; resid.=  8.06678796758868E-13
(PID.TID 0000.0001)  cg2d: iter=   137 ; resid.=  6.42196498469817E-13
(PID.TID 0000.0001)  cg2d: iter=   138 ; resid.=  4.45158344644209E-13
(PID.TID 0000.0001)  cg2d: iter=   139 ; resid.=  3.08138437385823E-13
(PID.TID 0000.0001)  cg2d: iter=   140 ; resid.=  1.94781248557529E-13
(PID.TID 0000.0001)  cg2d: iter=   141 ; resid.=  1.37570256238345E-13
(PID.TID 0000.0001)  cg2d: iter=   142 ; resid.=  9.14095109360737E-14
DEBUG_STATS_RL:    cg2d_x (SOLVE_FOR_PRESSURE)  min= -7.92995316241037E+00
DEBUG_STATS_RL:    cg2d_x (SOLVE_FOR_PRESSURE)  max=  6.47052774142570E+00
DEBUG_STATS_RL:    cg2d_x (SOLVE_FOR_PRESSURE) mean= -6.24895611626178E-01
DEBUG_STATS_RL:    cg2d_x (SOLVE_FOR_PRESSURE) S.D.=  2.90746934239133E+00
(PID.TID 0000.0001)      cg2d_init_res =   6.15844453763648E+00
(PID.TID 0000.0001)      cg2d_iters(min,last) =      -1     142
(PID.TID 0000.0001)      cg2d_last_res =   9.14095109360737E-14
(PID.TID 0000.0001) // =======================================================
(PID.TID 0000.0001) // Begin MONITOR dynamic field statistics
(PID.TID 0000.0001) // =======================================================
(PID.TID 0000.0001) %MON time_tsnumber                =                     1
(PID.TID 0000.0001) %MON time_secondsf                =   8.6400000000000E+04
(PID.TID 0000.0001) %MON dynstat_eta_max              =   6.5958488699556E-01
(PID.TID 0000.0001) %MON dynstat_eta_min              =  -8.0835404305903E-01
(PID.TID 0000.0001) %MON dynstat_eta_mean             =  -6.4811745051338E-05
(PID.TID 0000.0001) %MON dynstat_eta_sd               =   2.5965440360324E-01
(PID.TID 0000.0001) %MON dynstat_eta_del2             =   2.5235511670410E-03
(PID.TID 0000.0001) %MON dynstat_uvel_max             =   1.5158309744614E-02
(PID.TID 0000.0001) %MON dynstat_uvel_min             =  -1.6708732943419E-02
(PID.TID 0000.0001) %MON dynstat_uvel_mean            =  -5.1383409808447E-04
(PID.TID 0000.0001) %MON dynstat_uvel_sd              =   1.2647344356106E-03
(PID.TID 0000.0001) %MON dynstat_uvel_del2            =   1.8282581448751E-05
(PID.TID 0000.0001) %MON dynstat_vvel_max             =   1.8053048862944E-02
(PID.TID 0000.0001) %MON dynstat_vvel_min             =  -2.1368040981480E-02
(PID.TID 0000.0001) %MON dynstat_vvel_mean            =   7.3100703241450E-04
(PID.TID 0000.0001) %MON dynstat_vvel_sd              =   2.4750813838834E-03
(PID.TID 0000.0001) %MON dynstat_vvel_del2            =   2.2977115073917E-05
(PID.TID 0000.0001) %MON dynstat_wvel_max             =   6.2732222545290E-05
(PID.TID 0000.0001) %MON dynstat_wvel_min             =  -5.6766294178854E-05
(PID.TID 0000.0001) %MON dynstat_wvel_mean            =   1.4218025072270E-23
(PID.TID 0000.0001) %MON dynstat_wvel_sd              =   7.1455736304658E-06
(PID.TID 0000.0001) %MON dynstat_wvel_del2            =   9.4973952358121E-08
(PID.TID 0000.0001) %MON dynstat_theta_max            =   2.9751665696433E+01
(PID.TID 0000.0001) %MON dynstat_theta_min            =  -1.9081159839876E+00
(PID.TID 0000.0001) %MON dynstat_theta_mean           =   3.6197985269663E+00
(PID.TID 0000.0001) %MON dynstat_theta_sd             =   4.4172526832786E+00
(PID.TID 0000.0001) %MON dynstat_theta_del2           =   5.6235280360119E-03
(PID.TID 0000.0001) %MON dynstat_salt_max             =   3.7468067034947E+01
(PID.TID 0000.0001) %MON dynstat_salt_min             =   2.9755851758471E+01
(PID.TID 0000.0001) %MON dynstat_salt_mean            =   3.4718007010081E+01
(PID.TID 0000.0001) %MON dynstat_salt_sd              =   2.9617347247037E-01
(PID.TID 0000.0001) %MON dynstat_salt_del2            =   1.0149138404509E-03
(PID.TID 0000.0001) %MON dynstat_sst_max              =   2.9751665696433E+01
(PID.TID 0000.0001) %MON dynstat_sst_min              =  -1.9081159839876E+00
(PID.TID 0000.0001) %MON dynstat_sst_mean             =   1.8490069921393E+01
(PID.TID 0000.0001) %MON dynstat_sst_sd               =   9.1743912374429E+00
(PID.TID 0000.0001) %MON dynstat_sst_del2             =   2.7144843616161E-02
(PID.TID 0000.0001) %MON dynstat_sss_max              =   3.7468067034947E+01
(PID.TID 0000.0001) %MON dynstat_sss_min              =   2.9755851758471E+01
(PID.TID 0000.0001) %MON dynstat_sss_mean             =   3.4849557484090E+01
(PID.TID 0000.0001) %MON dynstat_sss_sd               =   9.6355184958765E-01
(PID.TID 0000.0001) %MON dynstat_sss_del2             =   8.0292061246874E-03
(PID.TID 0000.0001) %MON forcing_qnet_max             =   4.2589080810547E+02
(PID.TID 0000.0001) %MON forcing_qnet_min             =  -1.8702698516846E+02
(PID.TID 0000.0001) %MON forcing_qnet_mean            =  -1.6700205338390E+01
(PID.TID 0000.0001) %MON forcing_qnet_sd              =   1.1285666794876E+02
(PID.TID 0000.0001) %MON forcing_qnet_del2            =   9.9079877721394E-01
(PID.TID 0000.0001) %MON forcing_qsw_max              =   0.0000000000000E+00
(PID.TID 0000.0001) %MON forcing_qsw_min              =   0.0000000000000E+00
(PID.TID 0000.0001) %MON forcing_qsw_mean             =   0.0000000000000E+00
(PID.TID 0000.0001) %MON forcing_qsw_sd               =   0.0000000000000E+00
(PID.TID 0000.0001) %MON forcing_qsw_del2             =   0.0000000000000E+00
(PID.TID 0000.0001) %MON forcing_empmr_max            =   8.3243762105667E-05
(PID.TID 0000.0001) %MON forcing_empmr_min            =  -7.4169506092403E-05
(PID.TID 0000.0001) %MON forcing_empmr_mean           =   7.7639069592805E-07
(PID.TID 0000.0001) %MON forcing_empmr_sd             =   2.7794934142646E-05
(PID.TID 0000.0001) %MON forcing_empmr_del2           =   3.6436962197033E-07
(PID.TID 0000.0001) %MON forcing_fu_max               =   2.7488999068737E-01
(PID.TID 0000.0001) %MON forcing_fu_min               =  -1.6014087945223E-01
(PID.TID 0000.0001) %MON forcing_fu_mean              =   1.6117127468124E-02
(PID.TID 0000.0001) %MON forcing_fu_sd                =   9.0153154829689E-02
(PID.TID 0000.0001) %MON forcing_fu_del2              =   6.5365667764057E-04
(PID.TID 0000.0001) %MON forcing_fv_max               =   2.0835298299789E-01
(PID.TID 0000.0001) %MON forcing_fv_min               =  -1.8690676242113E-01
(PID.TID 0000.0001) %MON forcing_fv_mean              =  -6.3653356424171E-03
(PID.TID 0000.0001) %MON forcing_fv_sd                =   4.5157892194461E-02
(PID.TID 0000.0001) %MON forcing_fv_del2              =   4.4595114894327E-04
(PID.TID 0000.0001) %MON trAdv_CFL_u_max              =   0.0000000000000E+00
(PID.TID 0000.0001) %MON trAdv_CFL_v_max              =   0.0000000000000E+00
(PID.TID 0000.0001) %MON trAdv_CFL_w_max              =   0.0000000000000E+00
(PID.TID 0000.0001) %MON advcfl_uvel_max              =   6.2569403145551E-03
(PID.TID 0000.0001) %MON advcfl_vvel_max              =   4.1514676605259E-03
(PID.TID 0000.0001) %MON advcfl_wvel_max              =   3.2395082918055E-02
(PID.TID 0000.0001) %MON advcfl_W_hf_max              =   2.5775062655917E-02
(PID.TID 0000.0001) %MON pe_b_mean                    =   8.6272545460768E-05
(PID.TID 0000.0001) %MON ke_max                       =   1.9814789972770E-04
(PID.TID 0000.0001) %MON ke_mean                      =   3.8367971682894E-06
(PID.TID 0000.0001) %MON ke_vol                       =   1.3226782436723E+18
(PID.TID 0000.0001) %MON vort_r_min                   =  -8.7828725082878E-08
(PID.TID 0000.0001) %MON vort_r_max                   =   6.7513066589479E-08
(PID.TID 0000.0001) %MON vort_a_mean                  =  -2.5274807339748E-05
(PID.TID 0000.0001) %MON vort_a_sd                    =   7.3604247148404E-05
(PID.TID 0000.0001) %MON vort_p_mean                  =  -3.1845655726768E-05
(PID.TID 0000.0001) %MON vort_p_sd                    =   1.3162541835841E-04
(PID.TID 0000.0001) %MON surfExpan_theta_mean         =   2.1643127512415E-05
(PID.TID 0000.0001) %MON surfExpan_salt_mean          =   1.5079548548983E-06
(PID.TID 0000.0001) // =======================================================
(PID.TID 0000.0001) // End MONITOR dynamic field statistics
(PID.TID 0000.0001) // =======================================================
 EXTERNAL_FIELDS_LOAD,         1 : iP,iLd,i0,i1=   12    1   12    1 ; Wght=  0.4666666667  0.5333333333
 EXTERNAL_FIELDS_LOAD: (fu0,1),fu,fv= -4.5368E-02 -3.5633E-02 -4.0176E-02 -6.3320E-02
 EXTERNAL_FIELDS_LOAD: SST,SSS,Q,E-P=  1.1350E-01  3.4387E+01  2.6514E+02  1.0896E-05
DEBUG_STATS_RL:          Uvel (THERMODYNAMICS)  min= -1.67087329434185E-02
DEBUG_STATS_RL:          Uvel (THERMODYNAMICS)  max=  1.51583097446135E-02
DEBUG_STATS_RL:          Uvel (THERMODYNAMICS) mean= -3.52096936526638E-04
DEBUG_STATS_RL:          Uvel (THERMODYNAMICS) S.D.=  1.86833928835670E-03
DEBUG_STATS_RL:          Vvel (THERMODYNAMICS)  min= -2.13680409814798E-02
DEBUG_STATS_RL:          Vvel (THERMODYNAMICS)  max=  1.80530488629440E-02
DEBUG_STATS_RL:          Vvel (THERMODYNAMICS) mean=  4.18687830580762E-04
DEBUG_STATS_RL:          Vvel (THERMODYNAMICS) S.D.=  3.15859562057338E-03
DEBUG_STATS_RL:          Wvel (THERMODYNAMICS)  min= -5.67662941788540E-05
DEBUG_STATS_RL:          Wvel (THERMODYNAMICS)  max=  6.27322225452905E-05
DEBUG_STATS_RL:          Wvel (THERMODYNAMICS) mean= -6.86705814462453E-07
DEBUG_STATS_RL:          Wvel (THERMODYNAMICS) S.D.=  7.32274115195438E-06
DEBUG_STATS_RL:         Theta (THERMODYNAMICS)  min= -1.90822353178052E+00
DEBUG_STATS_RL:         Theta (THERMODYNAMICS)  max=  2.97555818588863E+01
DEBUG_STATS_RL:         Theta (THERMODYNAMICS) mean=  5.88785086186317E+00
DEBUG_STATS_RL:         Theta (THERMODYNAMICS) S.D.=  6.86362231395447E+00
DEBUG_STATS_RL:          Salt (THERMODYNAMICS)  min=  2.97591161855313E+01
DEBUG_STATS_RL:          Salt (THERMODYNAMICS)  max=  3.74595421362185E+01
DEBUG_STATS_RL:          Salt (THERMODYNAMICS) mean=  3.47208249688143E+01
DEBUG_STATS_RL:          Salt (THERMODYNAMICS) S.D.=  4.86163144486387E-01
DEBUG_STATS_RL:         GtNm1 (THERMODYNAMICS)  min= -2.06448464114227E-06
DEBUG_STATS_RL:         GtNm1 (THERMODYNAMICS)  max=  1.56340497993600E-06
DEBUG_STATS_RL:         GtNm1 (THERMODYNAMICS) mean=  2.73454955804920E-09
DEBUG_STATS_RL:         GtNm1 (THERMODYNAMICS) S.D.=  1.82980109500408E-07
DEBUG_STATS_RL:         GsNm1 (THERMODYNAMICS)  min= -3.83140352966492E-07
DEBUG_STATS_RL:         GsNm1 (THERMODYNAMICS)  max=  1.72853707388853E-07
DEBUG_STATS_RL:         GsNm1 (THERMODYNAMICS) mean= -1.36548434118568E-09
DEBUG_STATS_RL:         GsNm1 (THERMODYNAMICS) S.D.=  1.04472398268158E-08
DEBUG_STATS_RL:                EtaN (DYNAMICS)  min= -8.08354043059032E-01
DEBUG_STATS_RL:                EtaN (DYNAMICS)  max=  6.59584886995556E-01
DEBUG_STATS_RL:                EtaN (DYNAMICS) mean= -6.36998584736186E-02
DEBUG_STATS_RL:                EtaN (DYNAMICS) S.D.=  2.96378118490452E-01
DEBUG_STATS_RL:                Uvel (DYNAMICS)  min= -1.67087329434185E-02
DEBUG_STATS_RL:                Uvel (DYNAMICS)  max=  1.51583097446135E-02
DEBUG_STATS_RL:                Uvel (DYNAMICS) mean= -3.52096936526638E-04
DEBUG_STATS_RL:                Uvel (DYNAMICS) S.D.=  1.86833928835670E-03
DEBUG_STATS_RL:                Vvel (DYNAMICS)  min= -2.13680409814798E-02
DEBUG_STATS_RL:                Vvel (DYNAMICS)  max=  1.80530488629440E-02
DEBUG_STATS_RL:                Vvel (DYNAMICS) mean=  4.18687830580762E-04
DEBUG_STATS_RL:                Vvel (DYNAMICS) S.D.=  3.15859562057338E-03
DEBUG_STATS_RL:                Wvel (DYNAMICS)  min= -5.67662941788540E-05
DEBUG_STATS_RL:                Wvel (DYNAMICS)  max=  6.27322225452905E-05
DEBUG_STATS_RL:                Wvel (DYNAMICS) mean= -6.86705814462453E-07
DEBUG_STATS_RL:                Wvel (DYNAMICS) S.D.=  7.32274115195438E-06
DEBUG_STATS_RL:               Theta (DYNAMICS)  min= -1.90822353178052E+00
DEBUG_STATS_RL:               Theta (DYNAMICS)  max=  2.97555818588863E+01
DEBUG_STATS_RL:               Theta (DYNAMICS) mean=  5.88785086186317E+00
DEBUG_STATS_RL:               Theta (DYNAMICS) S.D.=  6.86362231395447E+00
DEBUG_STATS_RL:                Salt (DYNAMICS)  min=  2.97591161855313E+01
DEBUG_STATS_RL:                Salt (DYNAMICS)  max=  3.74595421362185E+01
DEBUG_STATS_RL:                Salt (DYNAMICS) mean=  3.47208249688143E+01
DEBUG_STATS_RL:                Salt (DYNAMICS) S.D.=  4.86163144486387E-01
DEBUG_STATS_RL:                  Gu (DYNAMICS)  min= -2.63534974916129E-02
DEBUG_STATS_RL:                  Gu (DYNAMICS)  max=  2.65382554502732E-02
DEBUG_STATS_RL:                  Gu (DYNAMICS) mean= -7.08913466249426E-04
DEBUG_STATS_RL:                  Gu (DYNAMICS) S.D.=  3.82447094899123E-03
DEBUG_STATS_RL:                  Gv (DYNAMICS)  min= -2.66850060860496E-02
DEBUG_STATS_RL:                  Gv (DYNAMICS)  max=  4.33842429247679E-02
DEBUG_STATS_RL:                  Gv (DYNAMICS) mean=  1.86332206715001E-03
DEBUG_STATS_RL:                  Gv (DYNAMICS) S.D.=  7.07127388075302E-03
DEBUG_STATS_RL:               GuNm1 (DYNAMICS)  min= -1.03275317116872E-05
DEBUG_STATS_RL:               GuNm1 (DYNAMICS)  max=  1.04955728489779E-05
DEBUG_STATS_RL:               GuNm1 (DYNAMICS) mean= -3.62503478103444E-08
DEBUG_STATS_RL:               GuNm1 (DYNAMICS) S.D.=  1.41212905971750E-06
DEBUG_STATS_RL:               GvNm1 (DYNAMICS)  min= -1.23280870502518E-05
DEBUG_STATS_RL:               GvNm1 (DYNAMICS)  max=  1.76289551117748E-05
DEBUG_STATS_RL:               GvNm1 (DYNAMICS) mean=  7.81210052401526E-07
DEBUG_STATS_RL:               GvNm1 (DYNAMICS) S.D.=  2.89003625580482E-06
DEBUG_STATS_RL:               GtNm1 (DYNAMICS)  min= -2.06448464114227E-06
DEBUG_STATS_RL:               GtNm1 (DYNAMICS)  max=  1.56340497993600E-06
DEBUG_STATS_RL:               GtNm1 (DYNAMICS) mean=  2.73454955804920E-09
DEBUG_STATS_RL:               GtNm1 (DYNAMICS) S.D.=  1.82980109500408E-07
DEBUG_STATS_RL:               GsNm1 (DYNAMICS)  min= -3.83140352966492E-07
DEBUG_STATS_RL:               GsNm1 (DYNAMICS)  max=  1.72853707388853E-07
DEBUG_STATS_RL:               GsNm1 (DYNAMICS) mean= -1.36548434118568E-09
DEBUG_STATS_RL:               GsNm1 (DYNAMICS) S.D.=  1.04472398268158E-08
DEBUG_STATS_RL:    cg2d_b (SOLVE_FOR_PRESSURE)  min= -3.99395548421445E+04
DEBUG_STATS_RL:    cg2d_b (SOLVE_FOR_PRESSURE)  max=  2.13610664409066E+04
DEBUG_STATS_RL:    cg2d_b (SOLVE_FOR_PRESSURE) mean=  1.25016343079406E-01
DEBUG_STATS_RL:    cg2d_b (SOLVE_FOR_PRESSURE) S.D.=  5.15576602233502E+03
 cg2d: Sum(rhs),rhsMax =   7.24627090544375E-03  2.62333689722310E+00
(PID.TID 0000.0001)  cg2d: iter=     1 ; resid.=  6.77877675580045E-01
(PID.TID 0000.0001)  cg2d: iter=     2 ; resid.=  7.16031191409897E-01
(PID.TID 0000.0001)  cg2d: iter=     3 ; resid.=  6.32845141731617E-01
(PID.TID 0000.0001)  cg2d: iter=     4 ; resid.=  5.38906778801699E-01
(PID.TID 0000.0001)  cg2d: iter=     5 ; resid.=  4.50703161773769E-01
(PID.TID 0000.0001)  cg2d: iter=     6 ; resid.=  3.41141718886762E-01
(PID.TID 0000.0001)  cg2d: iter=     7 ; resid.=  2.78914901577680E-01
(PID.TID 0000.0001)  cg2d: iter=     8 ; resid.=  2.40871753234088E-01
(PID.TID 0000.0001)  cg2d: iter=     9 ; resid.=  2.31225614402388E-01
(PID.TID 0000.0001)  cg2d: iter=    10 ; resid.=  2.12947145354993E-01
(PID.TID 0000.0001)  cg2d: iter=    11 ; resid.=  1.90875393687971E-01
(PID.TID 0000.0001)  cg2d: iter=    12 ; resid.=  1.62297232438124E-01
(PID.TID 0000.0001)  cg2d: iter=    13 ; resid.=  1.45491534736213E-01
(PID.TID 0000.0001)  cg2d: iter=    14 ; resid.=  1.29300514498022E-01
(PID.TID 0000.0001)  cg2d: iter=    15 ; resid.=  1.10429637556200E-01
(PID.TID 0000.0001)  cg2d: iter=    16 ; resid.=  9.54700067165637E-02
(PID.TID 0000.0001)  cg2d: iter=    17 ; resid.=  7.42872290314556E-02
(PID.TID 0000.0001)  cg2d: iter=    18 ; resid.=  5.81470849203029E-02
(PID.TID 0000.0001)  cg2d: iter=    19 ; resid.=  4.22440025051109E-02
(PID.TID 0000.0001)  cg2d: iter=    20 ; resid.=  3.08128957804323E-02
(PID.TID 0000.0001)  cg2d: iter=    21 ; resid.=  2.29020673829403E-02
(PID.TID 0000.0001)  cg2d: iter=    22 ; resid.=  1.79966743917971E-02
(PID.TID 0000.0001)  cg2d: iter=    23 ; resid.=  1.52903209403166E-02
(PID.TID 0000.0001)  cg2d: iter=    24 ; resid.=  1.32494260776245E-02
(PID.TID 0000.0001)  cg2d: iter=    25 ; resid.=  1.19090245695246E-02
(PID.TID 0000.0001)  cg2d: iter=    26 ; resid.=  1.03779042275841E-02
(PID.TID 0000.0001)  cg2d: iter=    27 ; resid.=  7.88863390145703E-03
(PID.TID 0000.0001)  cg2d: iter=    28 ; resid.=  6.28494598840232E-03
(PID.TID 0000.0001)  cg2d: iter=    29 ; resid.=  4.83871926633918E-03
(PID.TID 0000.0001)  cg2d: iter=    30 ; resid.=  4.23554330747517E-03
(PID.TID 0000.0001)  cg2d: iter=    31 ; resid.=  3.55509459906334E-03
(PID.TID 0000.0001)  cg2d: iter=    32 ; resid.=  2.89563893059344E-03
(PID.TID 0000.0001)  cg2d: iter=    33 ; resid.=  2.20677121155281E-03
(PID.TID 0000.0001)  cg2d: iter=    34 ; resid.=  1.76017349013826E-03
(PID.TID 0000.0001)  cg2d: iter=    35 ; resid.=  1.34715983299832E-03
(PID.TID 0000.0001)  cg2d: iter=    36 ; resid.=  1.12629996738821E-03
(PID.TID 0000.0001)  cg2d: iter=    37 ; resid.=  9.95178754923214E-04
(PID.TID 0000.0001)  cg2d: iter=    38 ; resid.=  8.02083087406950E-04
(PID.TID 0000.0001)  cg2d: iter=    39 ; resid.=  6.66029160863525E-04
(PID.TID 0000.0001)  cg2d: iter=    40 ; resid.=  5.41693108411894E-04
(PID.TID 0000.0001)  cg2d: iter=    41 ; resid.=  4.70070223347995E-04
(PID.TID 0000.0001)  cg2d: iter=    42 ; resid.=  3.98631601009349E-04
(PID.TID 0000.0001)  cg2d: iter=    43 ; resid.=  3.13841027540053E-04
(PID.TID 0000.0001)  cg2d: iter=    44 ; resid.=  2.74130635270199E-04
(PID.TID 0000.0001)  cg2d: iter=    45 ; resid.=  2.26159375557309E-04
(PID.TID 0000.0001)  cg2d: iter=    46 ; resid.=  1.80719104029977E-04
(PID.TID 0000.0001)  cg2d: iter=    47 ; resid.=  1.49028375937503E-04
(PID.TID 0000.0001)  cg2d: iter=    48 ; resid.=  1.23993637228357E-04
(PID.TID 0000.0001)  cg2d: iter=    49 ; resid.=  1.12170036631363E-04
(PID.TID 0000.0001)  cg2d: iter=    50 ; resid.=  9.57474947519871E-05
(PID.TID 0000.0001)  cg2d: iter=    51 ; resid.=  8.36621865387278E-05
(PID.TID 0000.0001)  cg2d: iter=    52 ; resid.=  7.52374657408934E-05
(PID.TID 0000.0001)  cg2d: iter=    53 ; resid.=  5.66122766373525E-05
(PID.TID 0000.0001)  cg2d: iter=    54 ; resid.=  4.41079175045917E-05
(PID.TID 0000.0001)  cg2d: iter=    55 ; resid.=  3.36952566482317E-05
(PID.TID 0000.0001)  cg2d: iter=    56 ; resid.=  2.57930369308246E-05
(PID.TID 0000.0001)  cg2d: iter=    57 ; resid.=  2.14900952222040E-05
(PID.TID 0000.0001)  cg2d: iter=    58 ; resid.=  1.82303496224866E-05
(PID.TID 0000.0001)  cg2d: iter=    59 ; resid.=  1.50272031367917E-05
(PID.TID 0000.0001)  cg2d: iter=    60 ; resid.=  1.29609285543852E-05
(PID.TID 0000.0001)  cg2d: iter=    61 ; resid.=  1.06481496709015E-05
(PID.TID 0000.0001)  cg2d: iter=    62 ; resid.=  8.02577116963757E-06
(PID.TID 0000.0001)  cg2d: iter=    63 ; resid.=  6.56973227015451E-06
(PID.TID 0000.0001)  cg2d: iter=    64 ; resid.=  5.40605433171101E-06
(PID.TID 0000.0001)  cg2d: iter=    65 ; resid.=  4.49844279701172E-06
(PID.TID 0000.0001)  cg2d: iter=    66 ; resid.=  3.51847745567602E-06
(PID.TID 0000.0001)  cg2d: iter=    67 ; resid.=  2.73616022818173E-06
(PID.TID 0000.0001)  cg2d: iter=    68 ; resid.=  2.12773518100145E-06
(PID.TID 0000.0001)  cg2d: iter=    69 ; resid.=  1.75466999321020E-06
(PID.TID 0000.0001)  cg2d: iter=    70 ; resid.=  1.31517626436868E-06
(PID.TID 0000.0001)  cg2d: iter=    71 ; resid.=  1.13883376925803E-06
(PID.TID 0000.0001)  cg2d: iter=    72 ; resid.=  9.70496124334090E-07
(PID.TID 0000.0001)  cg2d: iter=    73 ; resid.=  8.24750810211019E-07
(PID.TID 0000.0001)  cg2d: iter=    74 ; resid.=  6.72170654721349E-07
(PID.TID 0000.0001)  cg2d: iter=    75 ; resid.=  5.43202066531874E-07
(PID.TID 0000.0001)  cg2d: iter=    76 ; resid.=  4.76770184031273E-07
(PID.TID 0000.0001)  cg2d: iter=    77 ; resid.=  3.76811256395314E-07
(PID.TID 0000.0001)  cg2d: iter=    78 ; resid.=  3.00913607917172E-07
(PID.TID 0000.0001)  cg2d: iter=    79 ; resid.=  2.60524041533267E-07
(PID.TID 0000.0001)  cg2d: iter=    80 ; resid.=  2.18759044516375E-07
(PID.TID 0000.0001)  cg2d: iter=    81 ; resid.=  1.80781163967493E-07
(PID.TID 0000.0001)  cg2d: iter=    82 ; resid.=  1.42193542233703E-07
(PID.TID 0000.0001)  cg2d: iter=    83 ; resid.=  1.21491836733528E-07
(PID.TID 0000.0001)  cg2d: iter=    84 ; resid.=  1.03958384960874E-07
(PID.TID 0000.0001)  cg2d: iter=    85 ; resid.=  8.90541222003609E-08
(PID.TID 0000.0001)  cg2d: iter=    86 ; resid.=  7.62303355286139E-08
(PID.TID 0000.0001)  cg2d: iter=    87 ; resid.=  6.59466011133945E-08
(PID.TID 0000.0001)  cg2d: iter=    88 ; resid.=  5.29094128327664E-08
(PID.TID 0000.0001)  cg2d: iter=    89 ; resid.=  4.21195595255484E-08
(PID.TID 0000.0001)  cg2d: iter=    90 ; resid.=  3.37784557642780E-08
(PID.TID 0000.0001)  cg2d: iter=    91 ; resid.=  2.34348692759815E-08
(PID.TID 0000.0001)  cg2d: iter=    92 ; resid.=  1.55113004857292E-08
(PID.TID 0000.0001)  cg2d: iter=    93 ; resid.=  1.11714778314058E-08
(PID.TID 0000.0001)  cg2d: iter=    94 ; resid.=  8.13862409711479E-09
(PID.TID 0000.0001)  cg2d: iter=    95 ; resid.=  5.84798718780387E-09
(PID.TID 0000.0001)  cg2d: iter=    96 ; resid.=  4.70435674595753E-09
(PID.TID 0000.0001)  cg2d: iter=    97 ; resid.=  3.94125613712533E-09
(PID.TID 0000.0001)  cg2d: iter=    98 ; resid.=  3.21293329462753E-09
(PID.TID 0000.0001)  cg2d: iter=    99 ; resid.=  2.54531425130618E-09
(PID.TID 0000.0001)  cg2d: iter=   100 ; resid.=  2.10559309799371E-09
(PID.TID 0000.0001)  cg2d: iter=   101 ; resid.=  1.63261918894837E-09
(PID.TID 0000.0001)  cg2d: iter=   102 ; resid.=  1.20722217669685E-09
(PID.TID 0000.0001)  cg2d: iter=   103 ; resid.=  9.53518523650425E-10
(PID.TID 0000.0001)  cg2d: iter=   104 ; resid.=  7.43516330733330E-10
(PID.TID 0000.0001)  cg2d: iter=   105 ; resid.=  6.03252660254182E-10
(PID.TID 0000.0001)  cg2d: iter=   106 ; resid.=  5.31149672947768E-10
(PID.TID 0000.0001)  cg2d: iter=   107 ; resid.=  4.40427467881491E-10
(PID.TID 0000.0001)  cg2d: iter=   108 ; resid.=  3.61363400311742E-10
(PID.TID 0000.0001)  cg2d: iter=   109 ; resid.=  3.01240835426430E-10
(PID.TID 0000.0001)  cg2d: iter=   110 ; resid.=  2.58099874127342E-10
(PID.TID 0000.0001)  cg2d: iter=   111 ; resid.=  1.99335176844121E-10
(PID.TID 0000.0001)  cg2d: iter=   112 ; resid.=  1.71385970892092E-10
(PID.TID 0000.0001)  cg2d: iter=   113 ; resid.=  1.48927797531575E-10
(PID.TID 0000.0001)  cg2d: iter=   114 ; resid.=  1.22295532058718E-10
(PID.TID 0000.0001)  cg2d: iter=   115 ; resid.=  9.17919415420054E-11
(PID.TID 0000.0001)  cg2d: iter=   116 ; resid.=  6.44967166300932E-11
(PID.TID 0000.0001)  cg2d: iter=   117 ; resid.=  4.79178533961557E-11
(PID.TID 0000.0001)  cg2d: iter=   118 ; resid.=  3.73083419113475E-11
(PID.TID 0000.0001)  cg2d: iter=   119 ; resid.=  2.67872707269515E-11
(PID.TID 0000.0001)  cg2d: iter=   120 ; resid.=  1.75385639687084E-11
(PID.TID 0000.0001)  cg2d: iter=   121 ; resid.=  1.29191195549891E-11
(PID.TID 0000.0001)  cg2d: iter=   122 ; resid.=  1.04245868628826E-11
(PID.TID 0000.0001)  cg2d: iter=   123 ; resid.=  8.44854707800662E-12
(PID.TID 0000.0001)  cg2d: iter=   124 ; resid.=  6.69643178468648E-12
(PID.TID 0000.0001)  cg2d: iter=   125 ; resid.=  5.19607165766889E-12
(PID.TID 0000.0001)  cg2d: iter=   126 ; resid.=  3.69133926796136E-12
(PID.TID 0000.0001)  cg2d: iter=   127 ; resid.=  2.92724738934920E-12
(PID.TID 0000.0001)  cg2d: iter=   128 ; resid.=  2.24237557607058E-12
(PID.TID 0000.0001)  cg2d: iter=   129 ; resid.=  1.76888564498628E-12
(PID.TID 0000.0001)  cg2d: iter=   130 ; resid.=  1.37054225137548E-12
(PID.TID 0000.0001)  cg2d: iter=   131 ; resid.=  1.03638090986614E-12
(PID.TID 0000.0001)  cg2d: iter=   132 ; resid.=  7.50065954759305E-13
(PID.TID 0000.0001)  cg2d: iter=   133 ; resid.=  5.89628113982857E-13
(PID.TID 0000.0001)  cg2d: iter=   134 ; resid.=  4.36645639161831E-13
(PID.TID 0000.0001)  cg2d: iter=   135 ; resid.=  3.09356273446480E-13
(PID.TID 0000.0001)  cg2d: iter=   136 ; resid.=  2.26783631735686E-13
(PID.TID 0000.0001)  cg2d: iter=   137 ; resid.=  1.56603832543799E-13
(PID.TID 0000.0001)  cg2d: iter=   138 ; resid.=  1.18140578352431E-13
(PID.TID 0000.0001)  cg2d: iter=   139 ; resid.=  8.27103859269616E-14
DEBUG_STATS_RL:    cg2d_x (SOLVE_FOR_PRESSURE)  min= -1.28112648504552E+01
DEBUG_STATS_RL:    cg2d_x (SOLVE_FOR_PRESSURE)  max=  8.79718345389456E+00
DEBUG_STATS_RL:    cg2d_x (SOLVE_FOR_PRESSURE) mean= -1.18919847028322E+00
DEBUG_STATS_RL:    cg2d_x (SOLVE_FOR_PRESSURE) S.D.=  4.96602510628795E+00
(PID.TID 0000.0001)      cg2d_init_res =   5.59128343335754E-01
(PID.TID 0000.0001)      cg2d_iters(min,last) =      -1     139
(PID.TID 0000.0001)      cg2d_last_res =   8.27103859269616E-14
(PID.TID 0000.0001) // =======================================================
(PID.TID 0000.0001) // Begin MONITOR dynamic field statistics
(PID.TID 0000.0001) // =======================================================
(PID.TID 0000.0001) %MON time_tsnumber                =                     2
(PID.TID 0000.0001) %MON time_secondsf                =   1.7280000000000E+05
(PID.TID 0000.0001) %MON dynstat_eta_max              =   8.9675672312890E-01
(PID.TID 0000.0001) %MON dynstat_eta_min              =  -1.3059393323604E+00
(PID.TID 0000.0001) %MON dynstat_eta_mean             =  -1.3043905248840E-04
(PID.TID 0000.0001) %MON dynstat_eta_sd               =   4.3921639153486E-01
(PID.TID 0000.0001) %MON dynstat_eta_del2             =   2.5732978566402E-03
(PID.TID 0000.0001) %MON dynstat_uvel_max             =   3.1598795517666E-02
(PID.TID 0000.0001) %MON dynstat_uvel_min             =  -3.2837519338803E-02
(PID.TID 0000.0001) %MON dynstat_uvel_mean            =  -8.3303781344623E-04
(PID.TID 0000.0001) %MON dynstat_uvel_sd              =   2.3743091752909E-03
(PID.TID 0000.0001) %MON dynstat_uvel_del2            =   3.3886696629711E-05
(PID.TID 0000.0001) %MON dynstat_vvel_max             =   3.5577408671909E-02
(PID.TID 0000.0001) %MON dynstat_vvel_min             =  -4.2879815633488E-02
(PID.TID 0000.0001) %MON dynstat_vvel_mean            =   9.1772856277279E-04
(PID.TID 0000.0001) %MON dynstat_vvel_sd              =   4.1706895237819E-03
(PID.TID 0000.0001) %MON dynstat_vvel_del2            =   4.3734337681038E-05
(PID.TID 0000.0001) %MON dynstat_wvel_max             =   1.0648449981780E-04
(PID.TID 0000.0001) %MON dynstat_wvel_min             =  -9.6469447407933E-05
(PID.TID 0000.0001) %MON dynstat_wvel_mean            =   2.0419022173763E-22
(PID.TID 0000.0001) %MON dynstat_wvel_sd              =   1.1896326504654E-05
(PID.TID 0000.0001) %MON dynstat_wvel_del2            =   1.6711844676250E-07
(PID.TID 0000.0001) %MON dynstat_theta_max            =   2.9755581858886E+01
(PID.TID 0000.0001) %MON dynstat_theta_min            =  -1.9082235317805E+00
(PID.TID 0000.0001) %MON dynstat_theta_mean           =   3.6191090214207E+00
(PID.TID 0000.0001) %MON dynstat_theta_sd             =   4.4154477871095E+00
(PID.TID 0000.0001) %MON dynstat_theta_del2           =   5.5979356114203E-03
(PID.TID 0000.0001) %MON dynstat_salt_max             =   3.7459542136219E+01
(PID.TID 0000.0001) %MON dynstat_salt_min             =   2.9759116185531E+01
(PID.TID 0000.0001) %MON dynstat_salt_mean            =   3.4717953488606E+01
(PID.TID 0000.0001) %MON dynstat_salt_sd              =   2.9610936715810E-01
(PID.TID 0000.0001) %MON dynstat_salt_del2            =   1.0201723134029E-03
(PID.TID 0000.0001) %MON dynstat_sst_max              =   2.9755581858886E+01
(PID.TID 0000.0001) %MON dynstat_sst_min              =  -1.9082235317805E+00
(PID.TID 0000.0001) %MON dynstat_sst_mean             =   1.8496904484259E+01
(PID.TID 0000.0001) %MON dynstat_sst_sd               =   9.1608937663248E+00
(PID.TID 0000.0001) %MON dynstat_sst_del2             =   2.6908609555559E-02
(PID.TID 0000.0001) %MON dynstat_sss_max              =   3.7459542136219E+01
(PID.TID 0000.0001) %MON dynstat_sss_min              =   2.9759116185531E+01
(PID.TID 0000.0001) %MON dynstat_sss_mean             =   3.4849736395591E+01
(PID.TID 0000.0001) %MON dynstat_sss_sd               =   9.6416974169398E-01
(PID.TID 0000.0001) %MON dynstat_sss_del2             =   8.0276285865127E-03
(PID.TID 0000.0001) %MON forcing_qnet_max             =   4.2693899536133E+02
(PID.TID 0000.0001) %MON forcing_qnet_min             =  -1.8655982259115E+02
(PID.TID 0000.0001) %MON forcing_qnet_mean            =  -1.6687693382567E+01
(PID.TID 0000.0001) %MON forcing_qnet_sd              =   1.1263946608433E+02
(PID.TID 0000.0001) %MON forcing_qnet_del2            =   9.9183674388333E-01
(PID.TID 0000.0001) %MON forcing_qsw_max              =   0.0000000000000E+00
(PID.TID 0000.0001) %MON forcing_qsw_min              =   0.0000000000000E+00
(PID.TID 0000.0001) %MON forcing_qsw_mean             =   0.0000000000000E+00
(PID.TID 0000.0001) %MON forcing_qsw_sd               =   0.0000000000000E+00
(PID.TID 0000.0001) %MON forcing_qsw_del2             =   0.0000000000000E+00
(PID.TID 0000.0001) %MON forcing_empmr_max            =   8.2987928351486E-05
(PID.TID 0000.0001) %MON forcing_empmr_min            =  -7.3906322484163E-05
(PID.TID 0000.0001) %MON forcing_empmr_mean           =   7.8616045367356E-07
(PID.TID 0000.0001) %MON forcing_empmr_sd             =   2.7832317986922E-05
(PID.TID 0000.0001) %MON forcing_empmr_del2           =   3.6378785899555E-07
(PID.TID 0000.0001) %MON forcing_fu_max               =   2.7403144240379E-01
(PID.TID 0000.0001) %MON forcing_fu_min               =  -1.5949268937111E-01
(PID.TID 0000.0001) %MON forcing_fu_mean              =   1.6109434647086E-02
(PID.TID 0000.0001) %MON forcing_fu_sd                =   9.0138031840955E-02
(PID.TID 0000.0001) %MON forcing_fu_del2              =   6.5488191036968E-04
(PID.TID 0000.0001) %MON forcing_fv_max               =   2.0882657567660E-01
(PID.TID 0000.0001) %MON forcing_fv_min               =  -1.8632210493088E-01
(PID.TID 0000.0001) %MON forcing_fv_mean              =  -6.2915731155564E-03
(PID.TID 0000.0001) %MON forcing_fv_sd                =   4.5261152700224E-02
(PID.TID 0000.0001) %MON forcing_fv_del2              =   4.4588571962377E-04
(PID.TID 0000.0001) %MON trAdv_CFL_u_max              =   1.0008157533247E-02
(PID.TID 0000.0001) %MON trAdv_CFL_v_max              =   5.0682935172283E-03
(PID.TID 0000.0001) %MON trAdv_CFL_w_max              =   1.9542292979732E-02
(PID.TID 0000.0001) %MON advcfl_uvel_max              =   1.0809142542200E-02
(PID.TID 0000.0001) %MON advcfl_vvel_max              =   8.3308604680245E-03
(PID.TID 0000.0001) %MON advcfl_wvel_max              =   3.3207336942452E-02
(PID.TID 0000.0001) %MON advcfl_W_hf_max              =   3.7576723382248E-02
(PID.TID 0000.0001) %MON pe_b_mean                    =   2.4685294776510E-04
(PID.TID 0000.0001) %MON ke_max                       =   8.8823970916915E-04
(PID.TID 0000.0001) %MON ke_mean                      =   1.1063737146164E-05
(PID.TID 0000.0001) %MON ke_vol                       =   1.3226782436723E+18
(PID.TID 0000.0001) %MON vort_r_min                   =  -1.7596434451345E-07
(PID.TID 0000.0001) %MON vort_r_max                   =   1.4401930320163E-07
(PID.TID 0000.0001) %MON vort_a_mean                  =  -2.5274807288479E-05
(PID.TID 0000.0001) %MON vort_a_sd                    =   7.3604186112011E-05
(PID.TID 0000.0001) %MON vort_p_mean                  =  -3.1845655662170E-05
(PID.TID 0000.0001) %MON vort_p_sd                    =   1.3162516641293E-04
(PID.TID 0000.0001) %MON surfExpan_theta_mean         =   1.9214665474864E-05
(PID.TID 0000.0001) %MON surfExpan_salt_mean          =   1.1420009006521E-06
(PID.TID 0000.0001) // =======================================================
(PID.TID 0000.0001) // End MONITOR dynamic field statistics
(PID.TID 0000.0001) // =======================================================
 EXTERNAL_FIELDS_LOAD,         2 : iP,iLd,i0,i1=   12    1   12    1 ; Wght=  0.4333333333  0.5666666667
 EXTERNAL_FIELDS_LOAD: (fu0,1),fu,fv= -4.5368E-02 -3.5633E-02 -3.9851E-02 -6.2886E-02
 EXTERNAL_FIELDS_LOAD: SST,SSS,Q,E-P=  1.7385E-01  3.4410E+01  2.6519E+02  1.0949E-05
DEBUG_STATS_RL:          Uvel (THERMODYNAMICS)  min= -3.28375193388027E-02
DEBUG_STATS_RL:          Uvel (THERMODYNAMICS)  max=  3.15987955176660E-02
DEBUG_STATS_RL:          Uvel (THERMODYNAMICS) mean= -4.31123203100629E-04
DEBUG_STATS_RL:          Uvel (THERMODYNAMICS) S.D.=  3.69435225683041E-03
DEBUG_STATS_RL:          Vvel (THERMODYNAMICS)  min= -4.28798156334882E-02
DEBUG_STATS_RL:          Vvel (THERMODYNAMICS)  max=  3.55774086719088E-02
DEBUG_STATS_RL:          Vvel (THERMODYNAMICS) mean=  8.21790394087040E-05
DEBUG_STATS_RL:          Vvel (THERMODYNAMICS) S.D.=  6.09759043237174E-03
DEBUG_STATS_RL:          Wvel (THERMODYNAMICS)  min= -9.64694474079332E-05
DEBUG_STATS_RL:          Wvel (THERMODYNAMICS)  max=  1.06484499817800E-04
DEBUG_STATS_RL:          Wvel (THERMODYNAMICS) mean= -7.73127902050033E-07
DEBUG_STATS_RL:          Wvel (THERMODYNAMICS) S.D.=  1.16521819419509E-05
DEBUG_STATS_RL:         Theta (THERMODYNAMICS)  min= -1.90860545731461E+00
DEBUG_STATS_RL:         Theta (THERMODYNAMICS)  max=  2.97581521552274E+01
DEBUG_STATS_RL:         Theta (THERMODYNAMICS) mean=  5.88866516954331E+00
DEBUG_STATS_RL:         Theta (THERMODYNAMICS) S.D.=  6.86211129694274E+00
DEBUG_STATS_RL:          Salt (THERMODYNAMICS)  min=  2.97605388842295E+01
DEBUG_STATS_RL:          Salt (THERMODYNAMICS)  max=  3.74520173295199E+01
DEBUG_STATS_RL:          Salt (THERMODYNAMICS) mean=  3.47207717766072E+01
DEBUG_STATS_RL:          Salt (THERMODYNAMICS) S.D.=  4.86264217311755E-01
DEBUG_STATS_RL:         GtNm1 (THERMODYNAMICS)  min= -2.05016934919372E-06
DEBUG_STATS_RL:         GtNm1 (THERMODYNAMICS)  max=  1.97951023236165E-06
DEBUG_STATS_RL:         GtNm1 (THERMODYNAMICS) mean=  7.47221951966782E-09
DEBUG_STATS_RL:         GtNm1 (THERMODYNAMICS) S.D.=  1.95516683820424E-07
DEBUG_STATS_RL:         GsNm1 (THERMODYNAMICS)  min= -4.02314514595621E-07
DEBUG_STATS_RL:         GsNm1 (THERMODYNAMICS)  max=  1.70750680196595E-07
DEBUG_STATS_RL:         GsNm1 (THERMODYNAMICS) mean= -9.35629897668431E-10
DEBUG_STATS_RL:         GsNm1 (THERMODYNAMICS) S.D.=  1.19455283525627E-08
DEBUG_STATS_RL:                EtaN (DYNAMICS)  min= -1.30593933236039E+00
DEBUG_STATS_RL:                EtaN (DYNAMICS)  max=  8.96756723128895E-01
DEBUG_STATS_RL:                EtaN (DYNAMICS) mean= -1.21223085655783E-01
DEBUG_STATS_RL:                EtaN (DYNAMICS) S.D.=  5.06220704004889E-01
DEBUG_STATS_RL:                Uvel (DYNAMICS)  min= -3.28375193388027E-02
DEBUG_STATS_RL:                Uvel (DYNAMICS)  max=  3.15987955176660E-02
DEBUG_STATS_RL:                Uvel (DYNAMICS) mean= -4.31123203100629E-04
DEBUG_STATS_RL:                Uvel (DYNAMICS) S.D.=  3.69435225683041E-03
DEBUG_STATS_RL:                Vvel (DYNAMICS)  min= -4.28798156334882E-02
DEBUG_STATS_RL:                Vvel (DYNAMICS)  max=  3.55774086719088E-02
DEBUG_STATS_RL:                Vvel (DYNAMICS) mean=  8.21790394087040E-05
DEBUG_STATS_RL:                Vvel (DYNAMICS) S.D.=  6.09759043237174E-03
DEBUG_STATS_RL:                Wvel (DYNAMICS)  min= -9.64694474079332E-05
DEBUG_STATS_RL:                Wvel (DYNAMICS)  max=  1.06484499817800E-04
DEBUG_STATS_RL:                Wvel (DYNAMICS) mean= -7.73127902050033E-07
DEBUG_STATS_RL:                Wvel (DYNAMICS) S.D.=  1.16521819419509E-05
DEBUG_STATS_RL:               Theta (DYNAMICS)  min= -1.90860545731461E+00
DEBUG_STATS_RL:               Theta (DYNAMICS)  max=  2.97581521552274E+01
DEBUG_STATS_RL:               Theta (DYNAMICS) mean=  5.88866516954331E+00
DEBUG_STATS_RL:               Theta (DYNAMICS) S.D.=  6.86211129694274E+00
DEBUG_STATS_RL:                Salt (DYNAMICS)  min=  2.97605388842295E+01
DEBUG_STATS_RL:                Salt (DYNAMICS)  max=  3.74520173295199E+01
DEBUG_STATS_RL:                Salt (DYNAMICS) mean=  3.47207717766072E+01
DEBUG_STATS_RL:                Salt (DYNAMICS) S.D.=  4.86264217311755E-01
DEBUG_STATS_RL:                  Gu (DYNAMICS)  min= -3.45484056481660E-02
DEBUG_STATS_RL:                  Gu (DYNAMICS)  max=  4.60711110676864E-02
DEBUG_STATS_RL:                  Gu (DYNAMICS) mean= -4.91195851052078E-04
DEBUG_STATS_RL:                  Gu (DYNAMICS) S.D.=  5.51612757455415E-03
DEBUG_STATS_RL:                  Gv (DYNAMICS)  min= -3.96958658621806E-02
DEBUG_STATS_RL:                  Gv (DYNAMICS)  max=  5.00797457832732E-02
DEBUG_STATS_RL:                  Gv (DYNAMICS) mean=  1.59051290787713E-03
DEBUG_STATS_RL:                  Gv (DYNAMICS) S.D.=  8.60844427695567E-03
DEBUG_STATS_RL:               GuNm1 (DYNAMICS)  min= -9.83108946573355E-06
DEBUG_STATS_RL:               GuNm1 (DYNAMICS)  max=  9.98283209133526E-06
DEBUG_STATS_RL:               GuNm1 (DYNAMICS) mean= -3.44278733683903E-08
DEBUG_STATS_RL:               GuNm1 (DYNAMICS) S.D.=  1.38587273978415E-06
DEBUG_STATS_RL:               GvNm1 (DYNAMICS)  min= -1.21005054955194E-05
DEBUG_STATS_RL:               GvNm1 (DYNAMICS)  max=  1.74297629963477E-05
DEBUG_STATS_RL:               GvNm1 (DYNAMICS) mean=  7.79981848334073E-07
DEBUG_STATS_RL:               GvNm1 (DYNAMICS) S.D.=  2.86564422950662E-06
DEBUG_STATS_RL:               GtNm1 (DYNAMICS)  min= -2.05016934919372E-06
DEBUG_STATS_RL:               GtNm1 (DYNAMICS)  max=  1.97951023236165E-06
DEBUG_STATS_RL:               GtNm1 (DYNAMICS) mean=  7.47221951966782E-09
DEBUG_STATS_RL:               GtNm1 (DYNAMICS) S.D.=  1.95516683820424E-07
DEBUG_STATS_RL:               GsNm1 (DYNAMICS)  min= -4.02314514595621E-07
DEBUG_STATS_RL:               GsNm1 (DYNAMICS)  max=  1.70750680196595E-07
DEBUG_STATS_RL:               GsNm1 (DYNAMICS) mean= -9.35629897668431E-10
DEBUG_STATS_RL:               GsNm1 (DYNAMICS) S.D.=  1.19455283525627E-08
DEBUG_STATS_RL:    cg2d_b (SOLVE_FOR_PRESSURE)  min= -3.65152302192610E+04
DEBUG_STATS_RL:    cg2d_b (SOLVE_FOR_PRESSURE)  max=  2.03015015374910E+04
DEBUG_STATS_RL:    cg2d_b (SOLVE_FOR_PRESSURE) mean=  1.88697000447173E-01
DEBUG_STATS_RL:    cg2d_b (SOLVE_FOR_PRESSURE) S.D.=  4.90159236091601E+03
 cg2d: Sum(rhs),rhsMax =   1.19630508533541E-02  2.39841808761732E+00
(PID.TID 0000.0001)  cg2d: iter=     1 ; resid.=  3.77461836018481E-01
(PID.TID 0000.0001)  cg2d: iter=     2 ; resid.=  4.61791506473155E-01
(PID.TID 0000.0001)  cg2d: iter=     3 ; resid.=  4.00923100327691E-01
(PID.TID 0000.0001)  cg2d: iter=     4 ; resid.=  3.30553688591457E-01
(PID.TID 0000.0001)  cg2d: iter=     5 ; resid.=  2.97990859339431E-01
(PID.TID 0000.0001)  cg2d: iter=     6 ; resid.=  2.35649583400196E-01
(PID.TID 0000.0001)  cg2d: iter=     7 ; resid.=  1.83237039194510E-01
(PID.TID 0000.0001)  cg2d: iter=     8 ; resid.=  1.65824718563638E-01
(PID.TID 0000.0001)  cg2d: iter=     9 ; resid.=  1.53259411967395E-01
(PID.TID 0000.0001)  cg2d: iter=    10 ; resid.=  1.39994402630625E-01
(PID.TID 0000.0001)  cg2d: iter=    11 ; resid.=  1.26691296393728E-01
(PID.TID 0000.0001)  cg2d: iter=    12 ; resid.=  1.08751796831918E-01
(PID.TID 0000.0001)  cg2d: iter=    13 ; resid.=  9.24513440180336E-02
(PID.TID 0000.0001)  cg2d: iter=    14 ; resid.=  7.77981274043609E-02
(PID.TID 0000.0001)  cg2d: iter=    15 ; resid.=  6.26503042177554E-02
(PID.TID 0000.0001)  cg2d: iter=    16 ; resid.=  5.05765153848024E-02
(PID.TID 0000.0001)  cg2d: iter=    17 ; resid.=  4.58203462257146E-02
(PID.TID 0000.0001)  cg2d: iter=    18 ; resid.=  3.77394209873309E-02
(PID.TID 0000.0001)  cg2d: iter=    19 ; resid.=  2.81277987911214E-02
(PID.TID 0000.0001)  cg2d: iter=    20 ; resid.=  2.22906327481674E-02
(PID.TID 0000.0001)  cg2d: iter=    21 ; resid.=  1.88486913767124E-02
(PID.TID 0000.0001)  cg2d: iter=    22 ; resid.=  1.60504906165127E-02
(PID.TID 0000.0001)  cg2d: iter=    23 ; resid.=  1.29923436126417E-02
(PID.TID 0000.0001)  cg2d: iter=    24 ; resid.=  1.09196152867742E-02
(PID.TID 0000.0001)  cg2d: iter=    25 ; resid.=  9.06490761707456E-03
(PID.TID 0000.0001)  cg2d: iter=    26 ; resid.=  7.26529402675722E-03
(PID.TID 0000.0001)  cg2d: iter=    27 ; resid.=  6.29472518927578E-03
(PID.TID 0000.0001)  cg2d: iter=    28 ; resid.=  5.78906368139977E-03
(PID.TID 0000.0001)  cg2d: iter=    29 ; resid.=  4.84029998689185E-03
(PID.TID 0000.0001)  cg2d: iter=    30 ; resid.=  3.92653436499024E-03
(PID.TID 0000.0001)  cg2d: iter=    31 ; resid.=  3.04006370101451E-03
(PID.TID 0000.0001)  cg2d: iter=    32 ; resid.=  2.14936959527179E-03
(PID.TID 0000.0001)  cg2d: iter=    33 ; resid.=  1.64863721484454E-03
(PID.TID 0000.0001)  cg2d: iter=    34 ; resid.=  1.26899538727188E-03
(PID.TID 0000.0001)  cg2d: iter=    35 ; resid.=  1.01662808274204E-03
(PID.TID 0000.0001)  cg2d: iter=    36 ; resid.=  8.43334453090453E-04
(PID.TID 0000.0001)  cg2d: iter=    37 ; resid.=  7.46612909787748E-04
(PID.TID 0000.0001)  cg2d: iter=    38 ; resid.=  5.84002718296250E-04
(PID.TID 0000.0001)  cg2d: iter=    39 ; resid.=  4.40334856404315E-04
(PID.TID 0000.0001)  cg2d: iter=    40 ; resid.=  3.87111839342648E-04
(PID.TID 0000.0001)  cg2d: iter=    41 ; resid.=  3.71124494902334E-04
(PID.TID 0000.0001)  cg2d: iter=    42 ; resid.=  3.46579387447826E-04
(PID.TID 0000.0001)  cg2d: iter=    43 ; resid.=  2.65810203319667E-04
(PID.TID 0000.0001)  cg2d: iter=    44 ; resid.=  2.05941103247805E-04
(PID.TID 0000.0001)  cg2d: iter=    45 ; resid.=  1.71190222309488E-04
(PID.TID 0000.0001)  cg2d: iter=    46 ; resid.=  1.38823733517735E-04
(PID.TID 0000.0001)  cg2d: iter=    47 ; resid.=  1.16206765365703E-04
(PID.TID 0000.0001)  cg2d: iter=    48 ; resid.=  9.38734283879648E-05
(PID.TID 0000.0001)  cg2d: iter=    49 ; resid.=  7.81793694228628E-05
(PID.TID 0000.0001)  cg2d: iter=    50 ; resid.=  7.05472408010468E-05
(PID.TID 0000.0001)  cg2d: iter=    51 ; resid.=  6.52469840487183E-05
(PID.TID 0000.0001)  cg2d: iter=    52 ; resid.=  5.32833509942466E-05
(PID.TID 0000.0001)  cg2d: iter=    53 ; resid.=  4.20186629022742E-05
(PID.TID 0000.0001)  cg2d: iter=    54 ; resid.=  3.07253013848226E-05
(PID.TID 0000.0001)  cg2d: iter=    55 ; resid.=  2.48599577331212E-05
(PID.TID 0000.0001)  cg2d: iter=    56 ; resid.=  2.10999303261674E-05
(PID.TID 0000.0001)  cg2d: iter=    57 ; resid.=  1.68991794436736E-05
(PID.TID 0000.0001)  cg2d: iter=    58 ; resid.=  1.31945472971246E-05
(PID.TID 0000.0001)  cg2d: iter=    59 ; resid.=  1.06325173534812E-05
(PID.TID 0000.0001)  cg2d: iter=    60 ; resid.=  8.36746669153247E-06
(PID.TID 0000.0001)  cg2d: iter=    61 ; resid.=  6.54337817064964E-06
(PID.TID 0000.0001)  cg2d: iter=    62 ; resid.=  5.36853135725777E-06
(PID.TID 0000.0001)  cg2d: iter=    63 ; resid.=  4.56034686154386E-06
(PID.TID 0000.0001)  cg2d: iter=    64 ; resid.=  3.83226185796009E-06
(PID.TID 0000.0001)  cg2d: iter=    65 ; resid.=  3.14943689806930E-06
(PID.TID 0000.0001)  cg2d: iter=    66 ; resid.=  2.56985237542030E-06
(PID.TID 0000.0001)  cg2d: iter=    67 ; resid.=  2.23368880480048E-06
(PID.TID 0000.0001)  cg2d: iter=    68 ; resid.=  1.93897809298507E-06
(PID.TID 0000.0001)  cg2d: iter=    69 ; resid.=  1.45912312336430E-06
(PID.TID 0000.0001)  cg2d: iter=    70 ; resid.=  1.22727668819937E-06
(PID.TID 0000.0001)  cg2d: iter=    71 ; resid.=  9.41989406073524E-07
(PID.TID 0000.0001)  cg2d: iter=    72 ; resid.=  7.57994462005351E-07
(PID.TID 0000.0001)  cg2d: iter=    73 ; resid.=  6.90852649373779E-07
(PID.TID 0000.0001)  cg2d: iter=    74 ; resid.=  5.75483702924301E-07
(PID.TID 0000.0001)  cg2d: iter=    75 ; resid.=  4.71756232976206E-07
(PID.TID 0000.0001)  cg2d: iter=    76 ; resid.=  4.17215230980814E-07
(PID.TID 0000.0001)  cg2d: iter=    77 ; resid.=  3.60998639111016E-07
(PID.TID 0000.0001)  cg2d: iter=    78 ; resid.=  3.15896367972624E-07
(PID.TID 0000.0001)  cg2d: iter=    79 ; resid.=  2.65591215899298E-07
(PID.TID 0000.0001)  cg2d: iter=    80 ; resid.=  2.09531136654419E-07
(PID.TID 0000.0001)  cg2d: iter=    81 ; resid.=  1.58268406449823E-07
(PID.TID 0000.0001)  cg2d: iter=    82 ; resid.=  1.20207455601407E-07
(PID.TID 0000.0001)  cg2d: iter=    83 ; resid.=  9.43854940670910E-08
(PID.TID 0000.0001)  cg2d: iter=    84 ; resid.=  7.85510270061907E-08
(PID.TID 0000.0001)  cg2d: iter=    85 ; resid.=  6.96647768312697E-08
(PID.TID 0000.0001)  cg2d: iter=    86 ; resid.=  5.34987977162187E-08
(PID.TID 0000.0001)  cg2d: iter=    87 ; resid.=  4.18021746683678E-08
(PID.TID 0000.0001)  cg2d: iter=    88 ; resid.=  3.53017077649758E-08
(PID.TID 0000.0001)  cg2d: iter=    89 ; resid.=  2.80913126533127E-08
(PID.TID 0000.0001)  cg2d: iter=    90 ; resid.=  2.04738187847024E-08
(PID.TID 0000.0001)  cg2d: iter=    91 ; resid.=  1.49746162549869E-08
(PID.TID 0000.0001)  cg2d: iter=    92 ; resid.=  1.09183555150148E-08
(PID.TID 0000.0001)  cg2d: iter=    93 ; resid.=  8.06117543628542E-09
(PID.TID 0000.0001)  cg2d: iter=    94 ; resid.=  5.42013928737601E-09
(PID.TID 0000.0001)  cg2d: iter=    95 ; resid.=  4.13133951739958E-09
(PID.TID 0000.0001)  cg2d: iter=    96 ; resid.=  3.36206762491122E-09
(PID.TID 0000.0001)  cg2d: iter=    97 ; resid.=  2.54534807904582E-09
(PID.TID 0000.0001)  cg2d: iter=    98 ; resid.=  1.91091949693932E-09
(PID.TID 0000.0001)  cg2d: iter=    99 ; resid.=  1.50949131709919E-09
(PID.TID 0000.0001)  cg2d: iter=   100 ; resid.=  1.20920717785038E-09
(PID.TID 0000.0001)  cg2d: iter=   101 ; resid.=  9.15045058630135E-10
(PID.TID 0000.0001)  cg2d: iter=   102 ; resid.=  7.44180346928602E-10
(PID.TID 0000.0001)  cg2d: iter=   103 ; resid.=  5.90743858618843E-10
(PID.TID 0000.0001)  cg2d: iter=   104 ; resid.=  4.55456118949424E-10
(PID.TID 0000.0001)  cg2d: iter=   105 ; resid.=  3.45071686371295E-10
(PID.TID 0000.0001)  cg2d: iter=   106 ; resid.=  2.97881543139805E-10
(PID.TID 0000.0001)  cg2d: iter=   107 ; resid.=  2.43186090610795E-10
(PID.TID 0000.0001)  cg2d: iter=   108 ; resid.=  1.77654908663723E-10
(PID.TID 0000.0001)  cg2d: iter=   109 ; resid.=  1.35860196327137E-10
(PID.TID 0000.0001)  cg2d: iter=   110 ; resid.=  1.22632978438829E-10
(PID.TID 0000.0001)  cg2d: iter=   111 ; resid.=  1.10779909307300E-10
(PID.TID 0000.0001)  cg2d: iter=   112 ; resid.=  8.31344648858041E-11
(PID.TID 0000.0001)  cg2d: iter=   113 ; resid.=  6.87580537928581E-11
(PID.TID 0000.0001)  cg2d: iter=   114 ; resid.=  5.90321569478334E-11
(PID.TID 0000.0001)  cg2d: iter=   115 ; resid.=  5.32374758907227E-11
(PID.TID 0000.0001)  cg2d: iter=   116 ; resid.=  4.30574380972399E-11
(PID.TID 0000.0001)  cg2d: iter=   117 ; resid.=  3.12897292230493E-11
(PID.TID 0000.0001)  cg2d: iter=   118 ; resid.=  2.48359903413396E-11
(PID.TID 0000.0001)  cg2d: iter=   119 ; resid.=  1.98360120384963E-11
(PID.TID 0000.0001)  cg2d: iter=   120 ; resid.=  1.52155361323522E-11
(PID.TID 0000.0001)  cg2d: iter=   121 ; resid.=  1.13334043805109E-11
(PID.TID 0000.0001)  cg2d: iter=   122 ; resid.=  8.28710499929822E-12
(PID.TID 0000.0001)  cg2d: iter=   123 ; resid.=  6.53391033401119E-12
(PID.TID 0000.0001)  cg2d: iter=   124 ; resid.=  5.22672109472849E-12
(PID.TID 0000.0001)  cg2d: iter=   125 ; resid.=  3.73300962271880E-12
(PID.TID 0000.0001)  cg2d: iter=   126 ; resid.=  2.56674655164212E-12
(PID.TID 0000.0001)  cg2d: iter=   127 ; resid.=  1.87725872716780E-12
(PID.TID 0000.0001)  cg2d: iter=   128 ; resid.=  1.41198298225766E-12
(PID.TID 0000.0001)  cg2d: iter=   129 ; resid.=  1.09236392421642E-12
(PID.TID 0000.0001)  cg2d: iter=   130 ; resid.=  8.29412108560242E-13
(PID.TID 0000.0001)  cg2d: iter=   131 ; resid.=  6.64624303304360E-13
(PID.TID 0000.0001)  cg2d: iter=   132 ; resid.=  5.41132322442790E-13
(PID.TID 0000.0001)  cg2d: iter=   133 ; resid.=  4.11352671042050E-13
(PID.TID 0000.0001)  cg2d: iter=   134 ; resid.=  3.01268123988539E-13
(PID.TID 0000.0001)  cg2d: iter=   135 ; resid.=  2.32127836961234E-13
(PID.TID 0000.0001)  cg2d: iter=   136 ; resid.=  1.70867159028357E-13
(PID.TID 0000.0001)  cg2d: iter=   137 ; resid.=  1.22196434945181E-13
(PID.TID 0000.0001)  cg2d: iter=   138 ; resid.=  9.45394853421152E-14
DEBUG_STATS_RL:    cg2d_x (SOLVE_FOR_PRESSURE)  min= -1.53808277196060E+01
DEBUG_STATS_RL:    cg2d_x (SOLVE_FOR_PRESSURE)  max=  8.68951972445202E+00
DEBUG_STATS_RL:    cg2d_x (SOLVE_FOR_PRESSURE) mean= -1.49935644571090E+00
DEBUG_STATS_RL:    cg2d_x (SOLVE_FOR_PRESSURE) S.D.=  5.92259118890911E+00
(PID.TID 0000.0001)      cg2d_init_res =   4.93164676615083E-01
(PID.TID 0000.0001)      cg2d_iters(min,last) =      -1     138
(PID.TID 0000.0001)      cg2d_last_res =   9.45394853421152E-14
(PID.TID 0000.0001) // =======================================================
(PID.TID 0000.0001) // Begin MONITOR dynamic field statistics
(PID.TID 0000.0001) // =======================================================
(PID.TID 0000.0001) %MON time_tsnumber                =                     3
(PID.TID 0000.0001) %MON time_secondsf                =   2.5920000000000E+05
(PID.TID 0000.0001) %MON dynstat_eta_max              =   8.8578182716128E-01
(PID.TID 0000.0001) %MON dynstat_eta_min              =  -1.5678723465447E+00
(PID.TID 0000.0001) %MON dynstat_eta_mean             =  -1.9688192231148E-04
(PID.TID 0000.0001) %MON dynstat_eta_sd               =   5.2588227948747E-01
(PID.TID 0000.0001) %MON dynstat_eta_del2             =   2.4338384604833E-03
(PID.TID 0000.0001) %MON dynstat_uvel_max             =   5.0305625220162E-02
(PID.TID 0000.0001) %MON dynstat_uvel_min             =  -4.7208756971324E-02
(PID.TID 0000.0001) %MON dynstat_uvel_mean            =  -9.1512616384291E-04
(PID.TID 0000.0001) %MON dynstat_uvel_sd              =   3.4661743244523E-03
(PID.TID 0000.0001) %MON dynstat_uvel_del2            =   4.6984457552190E-05
(PID.TID 0000.0001) %MON dynstat_vvel_max             =   5.0543327944953E-02
(PID.TID 0000.0001) %MON dynstat_vvel_min             =  -6.2133267887295E-02
(PID.TID 0000.0001) %MON dynstat_vvel_mean            =   8.0677147467370E-04
(PID.TID 0000.0001) %MON dynstat_vvel_sd              =   5.7605875957812E-03
(PID.TID 0000.0001) %MON dynstat_vvel_del2            =   6.1666876354207E-05
(PID.TID 0000.0001) %MON dynstat_wvel_max             =   1.4649994947716E-04
(PID.TID 0000.0001) %MON dynstat_wvel_min             =  -1.2819741287483E-04
(PID.TID 0000.0001) %MON dynstat_wvel_mean            =   2.1061829437567E-23
(PID.TID 0000.0001) %MON dynstat_wvel_sd              =   1.6140374080685E-05
(PID.TID 0000.0001) %MON dynstat_wvel_del2            =   2.2751521570244E-07
(PID.TID 0000.0001) %MON dynstat_theta_max            =   2.9758152155227E+01
(PID.TID 0000.0001) %MON dynstat_theta_min            =  -1.9086054573146E+00
(PID.TID 0000.0001) %MON dynstat_theta_mean           =   3.6187997310236E+00
(PID.TID 0000.0001) %MON dynstat_theta_sd             =   4.4144149772500E+00
(PID.TID 0000.0001) %MON dynstat_theta_del2           =   5.5485126201769E-03
(PID.TID 0000.0001) %MON dynstat_salt_max             =   3.7452017329520E+01
(PID.TID 0000.0001) %MON dynstat_salt_min             =   2.9760538884230E+01
(PID.TID 0000.0001) %MON dynstat_salt_mean            =   3.4717933567000E+01
(PID.TID 0000.0001) %MON dynstat_salt_sd              =   2.9610028251144E-01
(PID.TID 0000.0001) %MON dynstat_salt_del2            =   1.0189231923171E-03
(PID.TID 0000.0001) %MON dynstat_sst_max              =   2.9758152155227E+01
(PID.TID 0000.0001) %MON dynstat_sst_min              =  -1.9086054573146E+00
(PID.TID 0000.0001) %MON dynstat_sst_mean             =   1.8505910350753E+01
(PID.TID 0000.0001) %MON dynstat_sst_sd               =   9.1481693967690E+00
(PID.TID 0000.0001) %MON dynstat_sst_del2             =   2.6739645900287E-02
(PID.TID 0000.0001) %MON dynstat_sss_max              =   3.7452017329520E+01
(PID.TID 0000.0001) %MON dynstat_sss_min              =   2.9760538884230E+01
(PID.TID 0000.0001) %MON dynstat_sss_mean             =   3.4850184790543E+01
(PID.TID 0000.0001) %MON dynstat_sss_sd               =   9.6459711624364E-01
(PID.TID 0000.0001) %MON dynstat_sss_del2             =   8.0142331022967E-03
(PID.TID 0000.0001) %MON forcing_qnet_max             =   4.2798718261719E+02
(PID.TID 0000.0001) %MON forcing_qnet_min             =  -1.8609266001383E+02
(PID.TID 0000.0001) %MON forcing_qnet_mean            =  -1.6675181426744E+01
(PID.TID 0000.0001) %MON forcing_qnet_sd              =   1.1242481361476E+02
(PID.TID 0000.0001) %MON forcing_qnet_del2            =   9.9305199082959E-01
(PID.TID 0000.0001) %MON forcing_qsw_max              =   0.0000000000000E+00
(PID.TID 0000.0001) %MON forcing_qsw_min              =   0.0000000000000E+00
(PID.TID 0000.0001) %MON forcing_qsw_mean             =   0.0000000000000E+00
(PID.TID 0000.0001) %MON forcing_qsw_sd               =   0.0000000000000E+00
(PID.TID 0000.0001) %MON forcing_qsw_del2             =   0.0000000000000E+00
(PID.TID 0000.0001) %MON forcing_empmr_max            =   8.2732094597304E-05
(PID.TID 0000.0001) %MON forcing_empmr_min            =  -7.3643138875923E-05
(PID.TID 0000.0001) %MON forcing_empmr_mean           =   7.9593021141906E-07
(PID.TID 0000.0001) %MON forcing_empmr_sd             =   2.7874041013016E-05
(PID.TID 0000.0001) %MON forcing_empmr_del2           =   3.6331922792719E-07
(PID.TID 0000.0001) %MON forcing_fu_max               =   2.7317289412022E-01
(PID.TID 0000.0001) %MON forcing_fu_min               =  -1.6030610948801E-01
(PID.TID 0000.0001) %MON forcing_fu_mean              =   1.6101741826049E-02
(PID.TID 0000.0001) %MON forcing_fu_sd                =   9.0133772222350E-02
(PID.TID 0000.0001) %MON forcing_fu_del2              =   6.5664222090357E-04
(PID.TID 0000.0001) %MON forcing_fv_max               =   2.0930016835531E-01
(PID.TID 0000.0001) %MON forcing_fv_min               =  -1.8573744744062E-01
(PID.TID 0000.0001) %MON forcing_fv_mean              =  -6.2178105886955E-03
(PID.TID 0000.0001) %MON forcing_fv_sd                =   4.5379778517573E-02
(PID.TID 0000.0001) %MON forcing_fv_del2              =   4.4636987924417E-04
(PID.TID 0000.0001) %MON trAdv_CFL_u_max              =   1.6531753452862E-02
(PID.TID 0000.0001) %MON trAdv_CFL_v_max              =   8.4975981860223E-03
(PID.TID 0000.0001) %MON trAdv_CFL_w_max              =   3.1651061427482E-02
(PID.TID 0000.0001) %MON advcfl_uvel_max              =   1.6378080720543E-02
(PID.TID 0000.0001) %MON advcfl_vvel_max              =   1.2071497452689E-02
(PID.TID 0000.0001) %MON advcfl_wvel_max              =   4.6559622883125E-02
(PID.TID 0000.0001) %MON advcfl_W_hf_max              =   5.2685889051958E-02
(PID.TID 0000.0001) %MON pe_b_mean                    =   3.5388188713652E-04
(PID.TID 0000.0001) %MON ke_max                       =   2.0635403564800E-03
(PID.TID 0000.0001) %MON ke_mean                      =   2.1028903426240E-05
(PID.TID 0000.0001) %MON ke_vol                       =   1.3226782436723E+18
(PID.TID 0000.0001) %MON vort_r_min                   =  -2.3736394980737E-07
(PID.TID 0000.0001) %MON vort_r_max                   =   1.9983155365092E-07
(PID.TID 0000.0001) %MON vort_a_mean                  =  -2.5274807209168E-05
(PID.TID 0000.0001) %MON vort_a_sd                    =   7.3604171156475E-05
(PID.TID 0000.0001) %MON vort_p_mean                  =  -3.1845655562240E-05
(PID.TID 0000.0001) %MON vort_p_sd                    =   1.3162501538757E-04
(PID.TID 0000.0001) %MON surfExpan_theta_mean         =   1.0405102281293E-05
(PID.TID 0000.0001) %MON surfExpan_salt_mean          =   4.3591179400870E-07
(PID.TID 0000.0001) // =======================================================
(PID.TID 0000.0001) // End MONITOR dynamic field statistics
(PID.TID 0000.0001) // =======================================================
 EXTERNAL_FIELDS_LOAD,         3 : iP,iLd,i0,i1=   12    1   12    1 ; Wght=  0.4000000000  0.6000000000
 EXTERNAL_FIELDS_LOAD: (fu0,1),fu,fv= -4.5368E-02 -3.5633E-02 -3.9527E-02 -6.2453E-02
 EXTERNAL_FIELDS_LOAD: SST,SSS,Q,E-P=  2.3421E-01  3.4434E+01  2.6523E+02  1.1002E-05
DEBUG_STATS_RL:          Uvel (THERMODYNAMICS)  min= -4.72087569713244E-02
DEBUG_STATS_RL:          Uvel (THERMODYNAMICS)  max=  5.03056252201618E-02
DEBUG_STATS_RL:          Uvel (THERMODYNAMICS) mean= -1.49517077776424E-04
DEBUG_STATS_RL:          Uvel (THERMODYNAMICS) S.D.=  5.60433302528558E-03
DEBUG_STATS_RL:          Vvel (THERMODYNAMICS)  min= -6.21332678872947E-02
DEBUG_STATS_RL:          Vvel (THERMODYNAMICS)  max=  5.05433279449528E-02
DEBUG_STATS_RL:          Vvel (THERMODYNAMICS) mean= -5.14213521083040E-04
DEBUG_STATS_RL:          Vvel (THERMODYNAMICS) S.D.=  8.82260533041944E-03
DEBUG_STATS_RL:          Wvel (THERMODYNAMICS)  min= -1.28197412874835E-04
DEBUG_STATS_RL:          Wvel (THERMODYNAMICS)  max=  1.46499949477161E-04
DEBUG_STATS_RL:          Wvel (THERMODYNAMICS) mean= -6.81215642689572E-07
DEBUG_STATS_RL:          Wvel (THERMODYNAMICS) S.D.=  1.55769927657835E-05
DEBUG_STATS_RL:         Theta (THERMODYNAMICS)  min= -1.90893674277215E+00
DEBUG_STATS_RL:         Theta (THERMODYNAMICS)  max=  2.97640369401606E+01
DEBUG_STATS_RL:         Theta (THERMODYNAMICS) mean=  5.89030621982776E+00
DEBUG_STATS_RL:         Theta (THERMODYNAMICS) S.D.=  6.86186628498890E+00
DEBUG_STATS_RL:          Salt (THERMODYNAMICS)  min=  2.97603904614630E+01
DEBUG_STATS_RL:          Salt (THERMODYNAMICS)  max=  3.74456077176164E+01
DEBUG_STATS_RL:          Salt (THERMODYNAMICS) mean=  3.47207936567843E+01
DEBUG_STATS_RL:          Salt (THERMODYNAMICS) S.D.=  4.86341612502182E-01
DEBUG_STATS_RL:         GtNm1 (THERMODYNAMICS)  min= -2.39561511455417E-06
DEBUG_STATS_RL:         GtNm1 (THERMODYNAMICS)  max=  2.53526924777810E-06
DEBUG_STATS_RL:         GtNm1 (THERMODYNAMICS) mean=  1.53727177240733E-08
DEBUG_STATS_RL:         GtNm1 (THERMODYNAMICS) S.D.=  2.11745681985629E-07
DEBUG_STATS_RL:         GsNm1 (THERMODYNAMICS)  min= -4.00169912726441E-07
DEBUG_STATS_RL:         GsNm1 (THERMODYNAMICS)  max=  6.71861678199210E-07
DEBUG_STATS_RL:         GsNm1 (THERMODYNAMICS) mean= -2.43610943379032E-10
DEBUG_STATS_RL:         GsNm1 (THERMODYNAMICS) S.D.=  1.45078600361076E-08
DEBUG_STATS_RL:                EtaN (DYNAMICS)  min= -1.56787234654474E+00
DEBUG_STATS_RL:                EtaN (DYNAMICS)  max=  8.85781827161282E-01
DEBUG_STATS_RL:                EtaN (DYNAMICS) mean= -1.52839596912427E-01
DEBUG_STATS_RL:                EtaN (DYNAMICS) S.D.=  6.03729988675756E-01
DEBUG_STATS_RL:                Uvel (DYNAMICS)  min= -4.72087569713244E-02
DEBUG_STATS_RL:                Uvel (DYNAMICS)  max=  5.03056252201618E-02
DEBUG_STATS_RL:                Uvel (DYNAMICS) mean= -1.49517077776424E-04
DEBUG_STATS_RL:                Uvel (DYNAMICS) S.D.=  5.60433302528558E-03
DEBUG_STATS_RL:                Vvel (DYNAMICS)  min= -6.21332678872947E-02
DEBUG_STATS_RL:                Vvel (DYNAMICS)  max=  5.05433279449528E-02
DEBUG_STATS_RL:                Vvel (DYNAMICS) mean= -5.14213521083040E-04
DEBUG_STATS_RL:                Vvel (DYNAMICS) S.D.=  8.82260533041944E-03
DEBUG_STATS_RL:                Wvel (DYNAMICS)  min= -1.28197412874835E-04
DEBUG_STATS_RL:                Wvel (DYNAMICS)  max=  1.46499949477161E-04
DEBUG_STATS_RL:                Wvel (DYNAMICS) mean= -6.81215642689572E-07
DEBUG_STATS_RL:                Wvel (DYNAMICS) S.D.=  1.55769927657835E-05
DEBUG_STATS_RL:               Theta (DYNAMICS)  min= -1.90893674277215E+00
DEBUG_STATS_RL:               Theta (DYNAMICS)  max=  2.97640369401606E+01
DEBUG_STATS_RL:               Theta (DYNAMICS) mean=  5.89030621982776E+00
DEBUG_STATS_RL:               Theta (DYNAMICS) S.D.=  6.86186628498890E+00
DEBUG_STATS_RL:                Salt (DYNAMICS)  min=  2.97603904614630E+01
DEBUG_STATS_RL:                Salt (DYNAMICS)  max=  3.74456077176164E+01
DEBUG_STATS_RL:                Salt (DYNAMICS) mean=  3.47207936567843E+01
DEBUG_STATS_RL:                Salt (DYNAMICS) S.D.=  4.86341612502182E-01
DEBUG_STATS_RL:                  Gu (DYNAMICS)  min= -4.80137379690172E-02
DEBUG_STATS_RL:                  Gu (DYNAMICS)  max=  6.64441186455308E-02
DEBUG_STATS_RL:                  Gu (DYNAMICS) mean=  4.59219385015320E-05
DEBUG_STATS_RL:                  Gu (DYNAMICS) S.D.=  7.53230220603766E-03
DEBUG_STATS_RL:                  Gv (DYNAMICS)  min= -5.66132971917929E-02
DEBUG_STATS_RL:                  Gv (DYNAMICS)  max=  5.52306277299506E-02
DEBUG_STATS_RL:                  Gv (DYNAMICS) mean=  1.08436930122322E-03
DEBUG_STATS_RL:                  Gv (DYNAMICS) S.D.=  1.02805621858943E-02
DEBUG_STATS_RL:               GuNm1 (DYNAMICS)  min= -9.24806389904774E-06
DEBUG_STATS_RL:               GuNm1 (DYNAMICS)  max=  9.32205159687507E-06
DEBUG_STATS_RL:               GuNm1 (DYNAMICS) mean= -3.30551400178849E-08
DEBUG_STATS_RL:               GuNm1 (DYNAMICS) S.D.=  1.35674760846580E-06
DEBUG_STATS_RL:               GvNm1 (DYNAMICS)  min= -1.18319294976199E-05
DEBUG_STATS_RL:               GvNm1 (DYNAMICS)  max=  1.71593312651635E-05
DEBUG_STATS_RL:               GvNm1 (DYNAMICS) mean=  7.79606070739518E-07
DEBUG_STATS_RL:               GvNm1 (DYNAMICS) S.D.=  2.84247563291314E-06
DEBUG_STATS_RL:               GtNm1 (DYNAMICS)  min= -2.39561511455417E-06
DEBUG_STATS_RL:               GtNm1 (DYNAMICS)  max=  2.53526924777810E-06
DEBUG_STATS_RL:               GtNm1 (DYNAMICS) mean=  1.53727177240733E-08
DEBUG_STATS_RL:               GtNm1 (DYNAMICS) S.D.=  2.11745681985629E-07
DEBUG_STATS_RL:               GsNm1 (DYNAMICS)  min= -4.00169912726441E-07
DEBUG_STATS_RL:               GsNm1 (DYNAMICS)  max=  6.71861678199210E-07
DEBUG_STATS_RL:               GsNm1 (DYNAMICS) mean= -2.43610943379032E-10
DEBUG_STATS_RL:               GsNm1 (DYNAMICS) S.D.=  1.45078600361076E-08
DEBUG_STATS_RL:    cg2d_b (SOLVE_FOR_PRESSURE)  min= -3.37566000738579E+04
DEBUG_STATS_RL:    cg2d_b (SOLVE_FOR_PRESSURE)  max=  1.96791263475391E+04
DEBUG_STATS_RL:    cg2d_b (SOLVE_FOR_PRESSURE) mean=  2.53159315034843E-01
DEBUG_STATS_RL:    cg2d_b (SOLVE_FOR_PRESSURE) S.D.=  4.70597645854239E+03
 cg2d: Sum(rhs),rhsMax =   1.73614585895505E-02  2.21722387363996E+00
(PID.TID 0000.0001)  cg2d: iter=     1 ; resid.=  2.75057280373815E-01
(PID.TID 0000.0001)  cg2d: iter=     2 ; resid.=  3.06872306108082E-01
(PID.TID 0000.0001)  cg2d: iter=     3 ; resid.=  2.80887308235905E-01
(PID.TID 0000.0001)  cg2d: iter=     4 ; resid.=  1.99156981306428E-01
(PID.TID 0000.0001)  cg2d: iter=     5 ; resid.=  1.82612077531958E-01
(PID.TID 0000.0001)  cg2d: iter=     6 ; resid.=  1.50597513080046E-01
(PID.TID 0000.0001)  cg2d: iter=     7 ; resid.=  1.19984658375819E-01
(PID.TID 0000.0001)  cg2d: iter=     8 ; resid.=  1.04708643501260E-01
(PID.TID 0000.0001)  cg2d: iter=     9 ; resid.=  9.29824448566958E-02
(PID.TID 0000.0001)  cg2d: iter=    10 ; resid.=  8.41697655217256E-02
(PID.TID 0000.0001)  cg2d: iter=    11 ; resid.=  7.18724480739607E-02
(PID.TID 0000.0001)  cg2d: iter=    12 ; resid.=  5.70402701070486E-02
(PID.TID 0000.0001)  cg2d: iter=    13 ; resid.=  4.48241293430542E-02
(PID.TID 0000.0001)  cg2d: iter=    14 ; resid.=  3.88818701111550E-02
(PID.TID 0000.0001)  cg2d: iter=    15 ; resid.=  3.38522696259752E-02
(PID.TID 0000.0001)  cg2d: iter=    16 ; resid.=  2.96632445097025E-02
(PID.TID 0000.0001)  cg2d: iter=    17 ; resid.=  2.86776982358930E-02
(PID.TID 0000.0001)  cg2d: iter=    18 ; resid.=  2.37400074744940E-02
(PID.TID 0000.0001)  cg2d: iter=    19 ; resid.=  1.80422787225123E-02
(PID.TID 0000.0001)  cg2d: iter=    20 ; resid.=  1.45777227894021E-02
(PID.TID 0000.0001)  cg2d: iter=    21 ; resid.=  1.22222396509282E-02
(PID.TID 0000.0001)  cg2d: iter=    22 ; resid.=  1.02196339388207E-02
(PID.TID 0000.0001)  cg2d: iter=    23 ; resid.=  8.21414807969390E-03
(PID.TID 0000.0001)  cg2d: iter=    24 ; resid.=  7.11409724449202E-03
(PID.TID 0000.0001)  cg2d: iter=    25 ; resid.=  6.33834369603096E-03
(PID.TID 0000.0001)  cg2d: iter=    26 ; resid.=  5.68686513000799E-03
(PID.TID 0000.0001)  cg2d: iter=    27 ; resid.=  4.86547800189995E-03
(PID.TID 0000.0001)  cg2d: iter=    28 ; resid.=  4.03852729017052E-03
(PID.TID 0000.0001)  cg2d: iter=    29 ; resid.=  3.60552268381919E-03
(PID.TID 0000.0001)  cg2d: iter=    30 ; resid.=  3.02925170262059E-03
(PID.TID 0000.0001)  cg2d: iter=    31 ; resid.=  2.47299452611764E-03
(PID.TID 0000.0001)  cg2d: iter=    32 ; resid.=  1.83056594949794E-03
(PID.TID 0000.0001)  cg2d: iter=    33 ; resid.=  1.43483993181240E-03
(PID.TID 0000.0001)  cg2d: iter=    34 ; resid.=  1.14815586968705E-03
(PID.TID 0000.0001)  cg2d: iter=    35 ; resid.=  8.78447927102640E-04
(PID.TID 0000.0001)  cg2d: iter=    36 ; resid.=  6.55098325775617E-04
(PID.TID 0000.0001)  cg2d: iter=    37 ; resid.=  5.43726405409371E-04
(PID.TID 0000.0001)  cg2d: iter=    38 ; resid.=  4.07471303722027E-04
(PID.TID 0000.0001)  cg2d: iter=    39 ; resid.=  3.04341993448962E-04
(PID.TID 0000.0001)  cg2d: iter=    40 ; resid.=  2.66531380314775E-04
(PID.TID 0000.0001)  cg2d: iter=    41 ; resid.=  2.49951242172016E-04
(PID.TID 0000.0001)  cg2d: iter=    42 ; resid.=  2.39284427927654E-04
(PID.TID 0000.0001)  cg2d: iter=    43 ; resid.=  1.89813503659269E-04
(PID.TID 0000.0001)  cg2d: iter=    44 ; resid.=  1.62177100490239E-04
(PID.TID 0000.0001)  cg2d: iter=    45 ; resid.=  1.50872275044290E-04
(PID.TID 0000.0001)  cg2d: iter=    46 ; resid.=  1.22529821388584E-04
(PID.TID 0000.0001)  cg2d: iter=    47 ; resid.=  1.00880052855457E-04
(PID.TID 0000.0001)  cg2d: iter=    48 ; resid.=  8.00593107546953E-05
(PID.TID 0000.0001)  cg2d: iter=    49 ; resid.=  6.41087371945224E-05
(PID.TID 0000.0001)  cg2d: iter=    50 ; resid.=  5.32568282478496E-05
(PID.TID 0000.0001)  cg2d: iter=    51 ; resid.=  4.34450568987808E-05
(PID.TID 0000.0001)  cg2d: iter=    52 ; resid.=  3.41907215348779E-05
(PID.TID 0000.0001)  cg2d: iter=    53 ; resid.=  2.73898669317574E-05
(PID.TID 0000.0001)  cg2d: iter=    54 ; resid.=  2.21400353585638E-05
(PID.TID 0000.0001)  cg2d: iter=    55 ; resid.=  1.74168967614615E-05
(PID.TID 0000.0001)  cg2d: iter=    56 ; resid.=  1.40401673311971E-05
(PID.TID 0000.0001)  cg2d: iter=    57 ; resid.=  1.03299368771425E-05
(PID.TID 0000.0001)  cg2d: iter=    58 ; resid.=  8.19794271162969E-06
(PID.TID 0000.0001)  cg2d: iter=    59 ; resid.=  6.54313297780822E-06
(PID.TID 0000.0001)  cg2d: iter=    60 ; resid.=  5.50251070575798E-06
(PID.TID 0000.0001)  cg2d: iter=    61 ; resid.=  4.39843077147734E-06
(PID.TID 0000.0001)  cg2d: iter=    62 ; resid.=  3.59933531093304E-06
(PID.TID 0000.0001)  cg2d: iter=    63 ; resid.=  3.03950437323545E-06
(PID.TID 0000.0001)  cg2d: iter=    64 ; resid.=  2.43623406373371E-06
(PID.TID 0000.0001)  cg2d: iter=    65 ; resid.=  2.03813682735354E-06
(PID.TID 0000.0001)  cg2d: iter=    66 ; resid.=  1.81151533896696E-06
(PID.TID 0000.0001)  cg2d: iter=    67 ; resid.=  1.62827423888228E-06
(PID.TID 0000.0001)  cg2d: iter=    68 ; resid.=  1.40125828704084E-06
(PID.TID 0000.0001)  cg2d: iter=    69 ; resid.=  1.18933998111491E-06
(PID.TID 0000.0001)  cg2d: iter=    70 ; resid.=  1.04119786327152E-06
(PID.TID 0000.0001)  cg2d: iter=    71 ; resid.=  7.74591521960671E-07
(PID.TID 0000.0001)  cg2d: iter=    72 ; resid.=  6.18775418274195E-07
(PID.TID 0000.0001)  cg2d: iter=    73 ; resid.=  5.34665747489989E-07
(PID.TID 0000.0001)  cg2d: iter=    74 ; resid.=  4.02967052277076E-07
(PID.TID 0000.0001)  cg2d: iter=    75 ; resid.=  3.24310130570195E-07
(PID.TID 0000.0001)  cg2d: iter=    76 ; resid.=  2.84766486507962E-07
(PID.TID 0000.0001)  cg2d: iter=    77 ; resid.=  2.38414854096032E-07
(PID.TID 0000.0001)  cg2d: iter=    78 ; resid.=  2.02177293889621E-07
(PID.TID 0000.0001)  cg2d: iter=    79 ; resid.=  1.69610611817861E-07
(PID.TID 0000.0001)  cg2d: iter=    80 ; resid.=  1.40359713966260E-07
(PID.TID 0000.0001)  cg2d: iter=    81 ; resid.=  1.21208143609010E-07
(PID.TID 0000.0001)  cg2d: iter=    82 ; resid.=  9.75841569483327E-08
(PID.TID 0000.0001)  cg2d: iter=    83 ; resid.=  7.14881613324983E-08
(PID.TID 0000.0001)  cg2d: iter=    84 ; resid.=  5.39405385566227E-08
(PID.TID 0000.0001)  cg2d: iter=    85 ; resid.=  4.21165109293130E-08
(PID.TID 0000.0001)  cg2d: iter=    86 ; resid.=  3.03849445362018E-08
(PID.TID 0000.0001)  cg2d: iter=    87 ; resid.=  2.35857250040697E-08
(PID.TID 0000.0001)  cg2d: iter=    88 ; resid.=  1.94311571345571E-08
(PID.TID 0000.0001)  cg2d: iter=    89 ; resid.=  1.57549062575674E-08
(PID.TID 0000.0001)  cg2d: iter=    90 ; resid.=  1.20884142403514E-08
(PID.TID 0000.0001)  cg2d: iter=    91 ; resid.=  9.85837671524941E-09
(PID.TID 0000.0001)  cg2d: iter=    92 ; resid.=  7.66134742667166E-09
(PID.TID 0000.0001)  cg2d: iter=    93 ; resid.=  5.94670344255110E-09
(PID.TID 0000.0001)  cg2d: iter=    94 ; resid.=  4.56605105748161E-09
(PID.TID 0000.0001)  cg2d: iter=    95 ; resid.=  3.31320354812019E-09
(PID.TID 0000.0001)  cg2d: iter=    96 ; resid.=  2.53912228829040E-09
(PID.TID 0000.0001)  cg2d: iter=    97 ; resid.=  2.05914927640731E-09
(PID.TID 0000.0001)  cg2d: iter=    98 ; resid.=  1.69720116252569E-09
(PID.TID 0000.0001)  cg2d: iter=    99 ; resid.=  1.40736166603903E-09
(PID.TID 0000.0001)  cg2d: iter=   100 ; resid.=  1.16259550278693E-09
(PID.TID 0000.0001)  cg2d: iter=   101 ; resid.=  8.73930657832490E-10
(PID.TID 0000.0001)  cg2d: iter=   102 ; resid.=  6.67688462978875E-10
(PID.TID 0000.0001)  cg2d: iter=   103 ; resid.=  5.47439097786842E-10
(PID.TID 0000.0001)  cg2d: iter=   104 ; resid.=  5.04116208800692E-10
(PID.TID 0000.0001)  cg2d: iter=   105 ; resid.=  4.43935451811638E-10
(PID.TID 0000.0001)  cg2d: iter=   106 ; resid.=  3.78265578310376E-10
(PID.TID 0000.0001)  cg2d: iter=   107 ; resid.=  3.02481503645137E-10
(PID.TID 0000.0001)  cg2d: iter=   108 ; resid.=  2.20587174421457E-10
(PID.TID 0000.0001)  cg2d: iter=   109 ; resid.=  1.82757089394992E-10
(PID.TID 0000.0001)  cg2d: iter=   110 ; resid.=  1.50907281442491E-10
(PID.TID 0000.0001)  cg2d: iter=   111 ; resid.=  1.18498217151972E-10
(PID.TID 0000.0001)  cg2d: iter=   112 ; resid.=  8.44050486741977E-11
(PID.TID 0000.0001)  cg2d: iter=   113 ; resid.=  6.20933053155712E-11
(PID.TID 0000.0001)  cg2d: iter=   114 ; resid.=  4.79214068389362E-11
(PID.TID 0000.0001)  cg2d: iter=   115 ; resid.=  3.90041831172514E-11
(PID.TID 0000.0001)  cg2d: iter=   116 ; resid.=  2.99381501541002E-11
(PID.TID 0000.0001)  cg2d: iter=   117 ; resid.=  2.11408147043942E-11
(PID.TID 0000.0001)  cg2d: iter=   118 ; resid.=  1.64209852895918E-11
(PID.TID 0000.0001)  cg2d: iter=   119 ; resid.=  1.38019679117529E-11
(PID.TID 0000.0001)  cg2d: iter=   120 ; resid.=  1.04742720658264E-11
(PID.TID 0000.0001)  cg2d: iter=   121 ; resid.=  7.95099683249353E-12
(PID.TID 0000.0001)  cg2d: iter=   122 ; resid.=  6.21526857653124E-12
(PID.TID 0000.0001)  cg2d: iter=   123 ; resid.=  5.14391637149304E-12
(PID.TID 0000.0001)  cg2d: iter=   124 ; resid.=  4.34192589708101E-12
(PID.TID 0000.0001)  cg2d: iter=   125 ; resid.=  3.17767212296788E-12
(PID.TID 0000.0001)  cg2d: iter=   126 ; resid.=  2.23839922826172E-12
(PID.TID 0000.0001)  cg2d: iter=   127 ; resid.=  1.51494489345586E-12
(PID.TID 0000.0001)  cg2d: iter=   128 ; resid.=  1.19621522027887E-12
(PID.TID 0000.0001)  cg2d: iter=   129 ; resid.=  9.09375771740251E-13
(PID.TID 0000.0001)  cg2d: iter=   130 ; resid.=  6.98289096425509E-13
(PID.TID 0000.0001)  cg2d: iter=   131 ; resid.=  5.44387263060722E-13
(PID.TID 0000.0001)  cg2d: iter=   132 ; resid.=  4.06432716032149E-13
(PID.TID 0000.0001)  cg2d: iter=   133 ; resid.=  3.00809220650335E-13
(PID.TID 0000.0001)  cg2d: iter=   134 ; resid.=  2.33713205636237E-13
(PID.TID 0000.0001)  cg2d: iter=   135 ; resid.=  1.76840966870122E-13
(PID.TID 0000.0001)  cg2d: iter=   136 ; resid.=  1.30214692866357E-13
(PID.TID 0000.0001)  cg2d: iter=   137 ; resid.=  1.02736545659907E-13
(PID.TID 0000.0001)  cg2d: iter=   138 ; resid.=  8.64312638798044E-14
DEBUG_STATS_RL:    cg2d_x (SOLVE_FOR_PRESSURE)  min= -1.55949893713690E+01
DEBUG_STATS_RL:    cg2d_x (SOLVE_FOR_PRESSURE)  max=  8.50594014071886E+00
DEBUG_STATS_RL:    cg2d_x (SOLVE_FOR_PRESSURE) mean= -1.60623014315177E+00
DEBUG_STATS_RL:    cg2d_x (SOLVE_FOR_PRESSURE) S.D.=  6.19041724055608E+00
(PID.TID 0000.0001)      cg2d_init_res =   4.16617513150744E-01
(PID.TID 0000.0001)      cg2d_iters(min,last) =      -1     138
(PID.TID 0000.0001)      cg2d_last_res =   8.64312638798044E-14
(PID.TID 0000.0001) // =======================================================
(PID.TID 0000.0001) // Begin MONITOR dynamic field statistics
(PID.TID 0000.0001) // =======================================================
(PID.TID 0000.0001) %MON time_tsnumber                =                     4
(PID.TID 0000.0001) %MON time_secondsf                =   3.4560000000000E+05
(PID.TID 0000.0001) %MON dynstat_eta_max              =   8.6706831199991E-01
(PID.TID 0000.0001) %MON dynstat_eta_min              =  -1.5897032998336E+00
(PID.TID 0000.0001) %MON dynstat_eta_mean             =  -2.6414035451998E-04
(PID.TID 0000.0001) %MON dynstat_eta_sd               =   5.5301229467363E-01
(PID.TID 0000.0001) %MON dynstat_eta_del2             =   2.3470460110723E-03
(PID.TID 0000.0001) %MON dynstat_uvel_max             =   7.0434809936764E-02
(PID.TID 0000.0001) %MON dynstat_uvel_min             =  -5.9996628648627E-02
(PID.TID 0000.0001) %MON dynstat_uvel_mean            =  -8.4086223276383E-04
(PID.TID 0000.0001) %MON dynstat_uvel_sd              =   4.6280797241694E-03
(PID.TID 0000.0001) %MON dynstat_uvel_del2            =   5.7864103056470E-05
(PID.TID 0000.0001) %MON dynstat_vvel_max             =   6.2533843491416E-02
(PID.TID 0000.0001) %MON dynstat_vvel_min             =  -7.8400496386699E-02
(PID.TID 0000.0001) %MON dynstat_vvel_mean            =   5.5668594766725E-04
(PID.TID 0000.0001) %MON dynstat_vvel_sd              =   7.2084953743671E-03
(PID.TID 0000.0001) %MON dynstat_vvel_del2            =   7.6918561175618E-05
(PID.TID 0000.0001) %MON dynstat_wvel_max             =   1.7999731124828E-04
(PID.TID 0000.0001) %MON dynstat_wvel_min             =  -1.5208620619449E-04
(PID.TID 0000.0001) %MON dynstat_wvel_mean            =   3.2685401820202E-22
(PID.TID 0000.0001) %MON dynstat_wvel_sd              =   1.9708955120563E-05
(PID.TID 0000.0001) %MON dynstat_wvel_del2            =   2.7387251545127E-07
(PID.TID 0000.0001) %MON dynstat_theta_max            =   2.9764036940161E+01
(PID.TID 0000.0001) %MON dynstat_theta_min            =  -1.9089367427721E+00
(PID.TID 0000.0001) %MON dynstat_theta_mean           =   3.6187752435484E+00
(PID.TID 0000.0001) %MON dynstat_theta_sd             =   4.4140900949052E+00
(PID.TID 0000.0001) %MON dynstat_theta_del2           =   5.4807732056055E-03
(PID.TID 0000.0001) %MON dynstat_salt_max             =   3.7445607717616E+01
(PID.TID 0000.0001) %MON dynstat_salt_min             =   2.9760390461463E+01
(PID.TID 0000.0001) %MON dynstat_salt_mean            =   3.4717934168636E+01
(PID.TID 0000.0001) %MON dynstat_salt_sd              =   2.9609511579940E-01
(PID.TID 0000.0001) %MON dynstat_salt_del2            =   1.0168884629892E-03
(PID.TID 0000.0001) %MON dynstat_sst_max              =   2.9764036940161E+01
(PID.TID 0000.0001) %MON dynstat_sst_min              =  -1.9089367427721E+00
(PID.TID 0000.0001) %MON dynstat_sst_mean             =   1.8518022383391E+01
(PID.TID 0000.0001) %MON dynstat_sst_sd               =   9.1364402379565E+00
(PID.TID 0000.0001) %MON dynstat_sst_del2             =   2.6612891492122E-02
(PID.TID 0000.0001) %MON dynstat_sss_max              =   3.7445607717616E+01
(PID.TID 0000.0001) %MON dynstat_sss_min              =   2.9760390461463E+01
(PID.TID 0000.0001) %MON dynstat_sss_mean             =   3.4850798626937E+01
(PID.TID 0000.0001) %MON dynstat_sss_sd               =   9.6499743983824E-01
(PID.TID 0000.0001) %MON dynstat_sss_del2             =   8.0194330948974E-03
(PID.TID 0000.0001) %MON forcing_qnet_max             =   4.2903536987305E+02
(PID.TID 0000.0001) %MON forcing_qnet_min             =  -1.8562549743652E+02
(PID.TID 0000.0001) %MON forcing_qnet_mean            =  -1.6662669470921E+01
(PID.TID 0000.0001) %MON forcing_qnet_sd              =   1.1221272517031E+02
(PID.TID 0000.0001) %MON forcing_qnet_del2            =   9.9444386812388E-01
(PID.TID 0000.0001) %MON forcing_qsw_max              =   0.0000000000000E+00
(PID.TID 0000.0001) %MON forcing_qsw_min              =   0.0000000000000E+00
(PID.TID 0000.0001) %MON forcing_qsw_mean             =   0.0000000000000E+00
(PID.TID 0000.0001) %MON forcing_qsw_sd               =   0.0000000000000E+00
(PID.TID 0000.0001) %MON forcing_qsw_del2             =   0.0000000000000E+00
(PID.TID 0000.0001) %MON forcing_empmr_max            =   8.2476260843123E-05
(PID.TID 0000.0001) %MON forcing_empmr_min            =  -7.3379955267683E-05
(PID.TID 0000.0001) %MON forcing_empmr_mean           =   8.0569996916457E-07
(PID.TID 0000.0001) %MON forcing_empmr_sd             =   2.7920083767862E-05
(PID.TID 0000.0001) %MON forcing_empmr_del2           =   3.6296416696684E-07
(PID.TID 0000.0001) %MON forcing_fu_max               =   2.7231434583664E-01
(PID.TID 0000.0001) %MON forcing_fu_min               =  -1.6111952960491E-01
(PID.TID 0000.0001) %MON forcing_fu_mean              =   1.6094049005012E-02
(PID.TID 0000.0001) %MON forcing_fu_sd                =   9.0140377513934E-02
(PID.TID 0000.0001) %MON forcing_fu_del2              =   6.5893332094781E-04
(PID.TID 0000.0001) %MON forcing_fv_max               =   2.1056245863438E-01
(PID.TID 0000.0001) %MON forcing_fv_min               =  -1.8515278995037E-01
(PID.TID 0000.0001) %MON forcing_fv_mean              =  -6.1440480618347E-03
(PID.TID 0000.0001) %MON forcing_fv_sd                =   4.5513649503191E-02
(PID.TID 0000.0001) %MON forcing_fv_del2              =   4.4740184358134E-04
(PID.TID 0000.0001) %MON trAdv_CFL_u_max              =   1.8809078061797E-02
(PID.TID 0000.0001) %MON trAdv_CFL_v_max              =   1.1564419261506E-02
(PID.TID 0000.0001) %MON trAdv_CFL_w_max              =   4.2914374767644E-02
(PID.TID 0000.0001) %MON advcfl_uvel_max              =   2.2730377389997E-02
(PID.TID 0000.0001) %MON advcfl_vvel_max              =   1.5231959055145E-02
(PID.TID 0000.0001) %MON advcfl_wvel_max              =   5.8287815721899E-02
(PID.TID 0000.0001) %MON advcfl_W_hf_max              =   6.5957265158991E-02
(PID.TID 0000.0001) %MON pe_b_mean                    =   3.9133696516077E-04
(PID.TID 0000.0001) %MON ke_max                       =   3.6105966234944E-03
(PID.TID 0000.0001) %MON ke_mean                      =   3.3519583739023E-05
(PID.TID 0000.0001) %MON ke_vol                       =   1.3226782436723E+18
(PID.TID 0000.0001) %MON vort_r_min                   =  -2.6055845599551E-07
(PID.TID 0000.0001) %MON vort_r_max                   =   2.2130898225448E-07
(PID.TID 0000.0001) %MON vort_a_mean                  =  -2.5274807116895E-05
(PID.TID 0000.0001) %MON vort_a_sd                    =   7.3604186612028E-05
(PID.TID 0000.0001) %MON vort_p_mean                  =  -3.1845655445979E-05
(PID.TID 0000.0001) %MON vort_p_sd                    =   1.3162491757951E-04
(PID.TID 0000.0001) %MON surfExpan_theta_mean         =   2.9951255910543E-06
(PID.TID 0000.0001) %MON surfExpan_salt_mean          =  -4.5302100504192E-08
(PID.TID 0000.0001) // =======================================================
(PID.TID 0000.0001) // End MONITOR dynamic field statistics
(PID.TID 0000.0001) // =======================================================
 EXTERNAL_FIELDS_LOAD,         4 : iP,iLd,i0,i1=   12    1   12    1 ; Wght=  0.3666666667  0.6333333333
 EXTERNAL_FIELDS_LOAD: (fu0,1),fu,fv= -4.5368E-02 -3.5633E-02 -3.9202E-02 -6.2020E-02
 EXTERNAL_FIELDS_LOAD: SST,SSS,Q,E-P=  2.9456E-01  3.4457E+01  2.6528E+02  1.1055E-05
DEBUG_STATS_RL:          Uvel (THERMODYNAMICS)  min= -5.99966286486270E-02
DEBUG_STATS_RL:          Uvel (THERMODYNAMICS)  max=  7.04348099367643E-02
DEBUG_STATS_RL:          Uvel (THERMODYNAMICS) mean=  3.96060313336639E-04
DEBUG_STATS_RL:          Uvel (THERMODYNAMICS) S.D.=  7.66302591280619E-03
DEBUG_STATS_RL:          Vvel (THERMODYNAMICS)  min= -7.84004963866995E-02
DEBUG_STATS_RL:          Vvel (THERMODYNAMICS)  max=  6.25338434914161E-02
DEBUG_STATS_RL:          Vvel (THERMODYNAMICS) mean= -1.09741947411675E-03
DEBUG_STATS_RL:          Vvel (THERMODYNAMICS) S.D.=  1.11262144053931E-02
DEBUG_STATS_RL:          Wvel (THERMODYNAMICS)  min= -1.52086206194486E-04
DEBUG_STATS_RL:          Wvel (THERMODYNAMICS)  max=  1.79997311248279E-04
DEBUG_STATS_RL:          Wvel (THERMODYNAMICS) mean= -6.14262767712845E-07
DEBUG_STATS_RL:          Wvel (THERMODYNAMICS) S.D.=  1.88995573961336E-05
DEBUG_STATS_RL:         Theta (THERMODYNAMICS)  min= -1.90864302314390E+00
DEBUG_STATS_RL:         Theta (THERMODYNAMICS)  max=  2.97747106309641E+01
DEBUG_STATS_RL:         Theta (THERMODYNAMICS) mean=  5.89241239547125E+00
DEBUG_STATS_RL:         Theta (THERMODYNAMICS) S.D.=  6.86240512482581E+00
DEBUG_STATS_RL:          Salt (THERMODYNAMICS)  min=  2.97590928596966E+01
DEBUG_STATS_RL:          Salt (THERMODYNAMICS)  max=  3.74406072955382E+01
DEBUG_STATS_RL:          Salt (THERMODYNAMICS) mean=  3.47208337016277E+01
DEBUG_STATS_RL:          Salt (THERMODYNAMICS) S.D.=  4.86406370519589E-01
DEBUG_STATS_RL:         GtNm1 (THERMODYNAMICS)  min= -2.96690489687210E-06
DEBUG_STATS_RL:         GtNm1 (THERMODYNAMICS)  max=  1.95067704628928E-06
DEBUG_STATS_RL:         GtNm1 (THERMODYNAMICS) mean=  2.19152628495202E-08
DEBUG_STATS_RL:         GtNm1 (THERMODYNAMICS) S.D.=  2.27458906202778E-07
DEBUG_STATS_RL:         GsNm1 (THERMODYNAMICS)  min= -3.99660234574691E-07
DEBUG_STATS_RL:         GsNm1 (THERMODYNAMICS)  max=  4.58880174098798E-07
DEBUG_STATS_RL:         GsNm1 (THERMODYNAMICS) mean=  1.90646443069365E-10
DEBUG_STATS_RL:         GsNm1 (THERMODYNAMICS) S.D.=  1.65064560623595E-08
DEBUG_STATS_RL:                EtaN (DYNAMICS)  min= -1.58970329983362E+00
DEBUG_STATS_RL:                EtaN (DYNAMICS)  max=  8.67068311999910E-01
DEBUG_STATS_RL:                EtaN (DYNAMICS) mean= -1.63733959546563E-01
DEBUG_STATS_RL:                EtaN (DYNAMICS) S.D.=  6.31031319118864E-01
DEBUG_STATS_RL:                Uvel (DYNAMICS)  min= -5.99966286486270E-02
DEBUG_STATS_RL:                Uvel (DYNAMICS)  max=  7.04348099367643E-02
DEBUG_STATS_RL:                Uvel (DYNAMICS) mean=  3.96060313336639E-04
DEBUG_STATS_RL:                Uvel (DYNAMICS) S.D.=  7.66302591280619E-03
DEBUG_STATS_RL:                Vvel (DYNAMICS)  min= -7.84004963866995E-02
DEBUG_STATS_RL:                Vvel (DYNAMICS)  max=  6.25338434914161E-02
DEBUG_STATS_RL:                Vvel (DYNAMICS) mean= -1.09741947411675E-03
DEBUG_STATS_RL:                Vvel (DYNAMICS) S.D.=  1.11262144053931E-02
DEBUG_STATS_RL:                Wvel (DYNAMICS)  min= -1.52086206194486E-04
DEBUG_STATS_RL:                Wvel (DYNAMICS)  max=  1.79997311248279E-04
DEBUG_STATS_RL:                Wvel (DYNAMICS) mean= -6.14262767712845E-07
DEBUG_STATS_RL:                Wvel (DYNAMICS) S.D.=  1.88995573961336E-05
DEBUG_STATS_RL:               Theta (DYNAMICS)  min= -1.90864302314390E+00
DEBUG_STATS_RL:               Theta (DYNAMICS)  max=  2.97747106309641E+01
DEBUG_STATS_RL:               Theta (DYNAMICS) mean=  5.89241239547125E+00
DEBUG_STATS_RL:               Theta (DYNAMICS) S.D.=  6.86240512482581E+00
DEBUG_STATS_RL:                Salt (DYNAMICS)  min=  2.97590928596966E+01
DEBUG_STATS_RL:                Salt (DYNAMICS)  max=  3.74406072955382E+01
DEBUG_STATS_RL:                Salt (DYNAMICS) mean=  3.47208337016277E+01
DEBUG_STATS_RL:                Salt (DYNAMICS) S.D.=  4.86406370519589E-01
DEBUG_STATS_RL:                  Gu (DYNAMICS)  min= -5.97631670635304E-02
DEBUG_STATS_RL:                  Gu (DYNAMICS)  max=  8.72415770224035E-02
DEBUG_STATS_RL:                  Gu (DYNAMICS) mean=  7.62443520179754E-04
DEBUG_STATS_RL:                  Gu (DYNAMICS) S.D.=  9.73110235381999E-03
DEBUG_STATS_RL:                  Gv (DYNAMICS)  min= -7.07183188958297E-02
DEBUG_STATS_RL:                  Gv (DYNAMICS)  max=  6.21757567291702E-02
DEBUG_STATS_RL:                  Gv (DYNAMICS) mean=  6.02196381215528E-04
DEBUG_STATS_RL:                  Gv (DYNAMICS) S.D.=  1.18169404274989E-02
DEBUG_STATS_RL:               GuNm1 (DYNAMICS)  min= -8.47641686507704E-06
DEBUG_STATS_RL:               GuNm1 (DYNAMICS)  max=  8.51777738212086E-06
DEBUG_STATS_RL:               GuNm1 (DYNAMICS) mean= -3.19927528229742E-08
DEBUG_STATS_RL:               GuNm1 (DYNAMICS) S.D.=  1.32171537861605E-06
DEBUG_STATS_RL:               GvNm1 (DYNAMICS)  min= -1.14947612962025E-05
DEBUG_STATS_RL:               GvNm1 (DYNAMICS)  max=  1.68430614512516E-05
DEBUG_STATS_RL:               GvNm1 (DYNAMICS) mean=  7.79058657900835E-07
DEBUG_STATS_RL:               GvNm1 (DYNAMICS) S.D.=  2.81425169182117E-06
DEBUG_STATS_RL:               GtNm1 (DYNAMICS)  min= -2.96690489687210E-06
DEBUG_STATS_RL:               GtNm1 (DYNAMICS)  max=  1.95067704628928E-06
DEBUG_STATS_RL:               GtNm1 (DYNAMICS) mean=  2.19152628495202E-08
DEBUG_STATS_RL:               GtNm1 (DYNAMICS) S.D.=  2.27458906202778E-07
DEBUG_STATS_RL:               GsNm1 (DYNAMICS)  min= -3.99660234574691E-07
DEBUG_STATS_RL:               GsNm1 (DYNAMICS)  max=  4.58880174098798E-07
DEBUG_STATS_RL:               GsNm1 (DYNAMICS) mean=  1.90646443069365E-10
DEBUG_STATS_RL:               GsNm1 (DYNAMICS) S.D.=  1.65064560623595E-08
DEBUG_STATS_RL:    cg2d_b (SOLVE_FOR_PRESSURE)  min= -3.06885321725575E+04
DEBUG_STATS_RL:    cg2d_b (SOLVE_FOR_PRESSURE)  max=  1.89400750358463E+04
DEBUG_STATS_RL:    cg2d_b (SOLVE_FOR_PRESSURE) mean=  3.18403286840546E-01
DEBUG_STATS_RL:    cg2d_b (SOLVE_FOR_PRESSURE) S.D.=  4.47120300765305E+03
 cg2d: Sum(rhs),rhsMax =   2.40188616676348E-02  2.01570495935867E+00
(PID.TID 0000.0001)  cg2d: iter=     1 ; resid.=  2.39616836877769E-01
(PID.TID 0000.0001)  cg2d: iter=     2 ; resid.=  2.80864288632673E-01
(PID.TID 0000.0001)  cg2d: iter=     3 ; resid.=  2.99572816098159E-01
(PID.TID 0000.0001)  cg2d: iter=     4 ; resid.=  2.05922485595716E-01
(PID.TID 0000.0001)  cg2d: iter=     5 ; resid.=  1.82669652804894E-01
(PID.TID 0000.0001)  cg2d: iter=     6 ; resid.=  1.43959611776809E-01
(PID.TID 0000.0001)  cg2d: iter=     7 ; resid.=  1.21360557405021E-01
(PID.TID 0000.0001)  cg2d: iter=     8 ; resid.=  9.07019486460764E-02
(PID.TID 0000.0001)  cg2d: iter=     9 ; resid.=  7.02979820819267E-02
(PID.TID 0000.0001)  cg2d: iter=    10 ; resid.=  5.88794007695491E-02
(PID.TID 0000.0001)  cg2d: iter=    11 ; resid.=  4.90326810811042E-02
(PID.TID 0000.0001)  cg2d: iter=    12 ; resid.=  3.89186831135530E-02
(PID.TID 0000.0001)  cg2d: iter=    13 ; resid.=  3.15761118032582E-02
(PID.TID 0000.0001)  cg2d: iter=    14 ; resid.=  2.79522953038200E-02
(PID.TID 0000.0001)  cg2d: iter=    15 ; resid.=  2.37577450379272E-02
(PID.TID 0000.0001)  cg2d: iter=    16 ; resid.=  2.02077471700287E-02
(PID.TID 0000.0001)  cg2d: iter=    17 ; resid.=  1.88294045966656E-02
(PID.TID 0000.0001)  cg2d: iter=    18 ; resid.=  1.52693179672766E-02
(PID.TID 0000.0001)  cg2d: iter=    19 ; resid.=  1.16608390813401E-02
(PID.TID 0000.0001)  cg2d: iter=    20 ; resid.=  8.83242138232961E-03
(PID.TID 0000.0001)  cg2d: iter=    21 ; resid.=  6.75433152773210E-03
(PID.TID 0000.0001)  cg2d: iter=    22 ; resid.=  5.29118229291515E-03
(PID.TID 0000.0001)  cg2d: iter=    23 ; resid.=  3.91428457802630E-03
(PID.TID 0000.0001)  cg2d: iter=    24 ; resid.=  2.98990736180227E-03
(PID.TID 0000.0001)  cg2d: iter=    25 ; resid.=  2.38080615600632E-03
(PID.TID 0000.0001)  cg2d: iter=    26 ; resid.=  2.01318575818491E-03
(PID.TID 0000.0001)  cg2d: iter=    27 ; resid.=  1.92084602449749E-03
(PID.TID 0000.0001)  cg2d: iter=    28 ; resid.=  1.73728939759141E-03
(PID.TID 0000.0001)  cg2d: iter=    29 ; resid.=  1.50498849347822E-03
(PID.TID 0000.0001)  cg2d: iter=    30 ; resid.=  1.42309451554146E-03
(PID.TID 0000.0001)  cg2d: iter=    31 ; resid.=  1.25916385497075E-03
(PID.TID 0000.0001)  cg2d: iter=    32 ; resid.=  9.32481204202119E-04
(PID.TID 0000.0001)  cg2d: iter=    33 ; resid.=  6.89816486881230E-04
(PID.TID 0000.0001)  cg2d: iter=    34 ; resid.=  5.70401597101611E-04
(PID.TID 0000.0001)  cg2d: iter=    35 ; resid.=  4.74615160563629E-04
(PID.TID 0000.0001)  cg2d: iter=    36 ; resid.=  3.64088234831921E-04
(PID.TID 0000.0001)  cg2d: iter=    37 ; resid.=  2.93829012940952E-04
(PID.TID 0000.0001)  cg2d: iter=    38 ; resid.=  2.46431382797698E-04
(PID.TID 0000.0001)  cg2d: iter=    39 ; resid.=  1.95273063436601E-04
(PID.TID 0000.0001)  cg2d: iter=    40 ; resid.=  1.48958883478972E-04
(PID.TID 0000.0001)  cg2d: iter=    41 ; resid.=  1.13689384913336E-04
(PID.TID 0000.0001)  cg2d: iter=    42 ; resid.=  9.08295381704558E-05
(PID.TID 0000.0001)  cg2d: iter=    43 ; resid.=  7.57049337851995E-05
(PID.TID 0000.0001)  cg2d: iter=    44 ; resid.=  5.88469668967824E-05
(PID.TID 0000.0001)  cg2d: iter=    45 ; resid.=  5.17315789803330E-05
(PID.TID 0000.0001)  cg2d: iter=    46 ; resid.=  4.14650031906555E-05
(PID.TID 0000.0001)  cg2d: iter=    47 ; resid.=  3.33875085632617E-05
(PID.TID 0000.0001)  cg2d: iter=    48 ; resid.=  2.96835640835365E-05
(PID.TID 0000.0001)  cg2d: iter=    49 ; resid.=  2.53893279817181E-05
(PID.TID 0000.0001)  cg2d: iter=    50 ; resid.=  2.23596180888966E-05
(PID.TID 0000.0001)  cg2d: iter=    51 ; resid.=  1.98114657765122E-05
(PID.TID 0000.0001)  cg2d: iter=    52 ; resid.=  1.62488438334456E-05
(PID.TID 0000.0001)  cg2d: iter=    53 ; resid.=  1.33987124670685E-05
(PID.TID 0000.0001)  cg2d: iter=    54 ; resid.=  1.10081023856079E-05
(PID.TID 0000.0001)  cg2d: iter=    55 ; resid.=  9.73475533955816E-06
(PID.TID 0000.0001)  cg2d: iter=    56 ; resid.=  8.50958389988560E-06
(PID.TID 0000.0001)  cg2d: iter=    57 ; resid.=  6.33384854596559E-06
(PID.TID 0000.0001)  cg2d: iter=    58 ; resid.=  4.80878875095010E-06
(PID.TID 0000.0001)  cg2d: iter=    59 ; resid.=  3.95606169175128E-06
(PID.TID 0000.0001)  cg2d: iter=    60 ; resid.=  3.34767199190229E-06
(PID.TID 0000.0001)  cg2d: iter=    61 ; resid.=  2.66362562647446E-06
(PID.TID 0000.0001)  cg2d: iter=    62 ; resid.=  2.29118848096638E-06
(PID.TID 0000.0001)  cg2d: iter=    63 ; resid.=  2.03077804062470E-06
(PID.TID 0000.0001)  cg2d: iter=    64 ; resid.=  1.66707614186822E-06
(PID.TID 0000.0001)  cg2d: iter=    65 ; resid.=  1.35660695387663E-06
(PID.TID 0000.0001)  cg2d: iter=    66 ; resid.=  1.20199849779864E-06
(PID.TID 0000.0001)  cg2d: iter=    67 ; resid.=  1.04452886780183E-06
(PID.TID 0000.0001)  cg2d: iter=    68 ; resid.=  7.99646466796939E-07
(PID.TID 0000.0001)  cg2d: iter=    69 ; resid.=  5.86798474195162E-07
(PID.TID 0000.0001)  cg2d: iter=    70 ; resid.=  4.96968501547602E-07
(PID.TID 0000.0001)  cg2d: iter=    71 ; resid.=  3.93723628040536E-07
(PID.TID 0000.0001)  cg2d: iter=    72 ; resid.=  3.60721999559970E-07
(PID.TID 0000.0001)  cg2d: iter=    73 ; resid.=  3.43194000884324E-07
(PID.TID 0000.0001)  cg2d: iter=    74 ; resid.=  2.68334293206228E-07
(PID.TID 0000.0001)  cg2d: iter=    75 ; resid.=  2.34641741616477E-07
(PID.TID 0000.0001)  cg2d: iter=    76 ; resid.=  2.14036042677991E-07
(PID.TID 0000.0001)  cg2d: iter=    77 ; resid.=  1.83910836061937E-07
(PID.TID 0000.0001)  cg2d: iter=    78 ; resid.=  1.51369256166490E-07
(PID.TID 0000.0001)  cg2d: iter=    79 ; resid.=  1.27750680064566E-07
(PID.TID 0000.0001)  cg2d: iter=    80 ; resid.=  1.13766377967547E-07
(PID.TID 0000.0001)  cg2d: iter=    81 ; resid.=  9.59225488279973E-08
(PID.TID 0000.0001)  cg2d: iter=    82 ; resid.=  7.81438647388161E-08
(PID.TID 0000.0001)  cg2d: iter=    83 ; resid.=  6.31738663931258E-08
(PID.TID 0000.0001)  cg2d: iter=    84 ; resid.=  5.20963750861595E-08
(PID.TID 0000.0001)  cg2d: iter=    85 ; resid.=  4.31402414304132E-08
(PID.TID 0000.0001)  cg2d: iter=    86 ; resid.=  3.47949446666054E-08
(PID.TID 0000.0001)  cg2d: iter=    87 ; resid.=  2.86389506535110E-08
(PID.TID 0000.0001)  cg2d: iter=    88 ; resid.=  2.34522219631957E-08
(PID.TID 0000.0001)  cg2d: iter=    89 ; resid.=  1.87532247214750E-08
(PID.TID 0000.0001)  cg2d: iter=    90 ; resid.=  1.47189288549968E-08
(PID.TID 0000.0001)  cg2d: iter=    91 ; resid.=  1.21073920694650E-08
(PID.TID 0000.0001)  cg2d: iter=    92 ; resid.=  8.73103098810333E-09
(PID.TID 0000.0001)  cg2d: iter=    93 ; resid.=  6.48539707375342E-09
(PID.TID 0000.0001)  cg2d: iter=    94 ; resid.=  5.36788784550081E-09
(PID.TID 0000.0001)  cg2d: iter=    95 ; resid.=  4.35584589632902E-09
(PID.TID 0000.0001)  cg2d: iter=    96 ; resid.=  3.22147377012893E-09
(PID.TID 0000.0001)  cg2d: iter=    97 ; resid.=  2.66255327332195E-09
(PID.TID 0000.0001)  cg2d: iter=    98 ; resid.=  2.38102867400202E-09
(PID.TID 0000.0001)  cg2d: iter=    99 ; resid.=  2.14465413511467E-09
(PID.TID 0000.0001)  cg2d: iter=   100 ; resid.=  1.75603736320809E-09
(PID.TID 0000.0001)  cg2d: iter=   101 ; resid.=  1.45049042291248E-09
(PID.TID 0000.0001)  cg2d: iter=   102 ; resid.=  1.15758403174600E-09
(PID.TID 0000.0001)  cg2d: iter=   103 ; resid.=  8.92712418091960E-10
(PID.TID 0000.0001)  cg2d: iter=   104 ; resid.=  7.65487018818697E-10
(PID.TID 0000.0001)  cg2d: iter=   105 ; resid.=  6.23798037075517E-10
(PID.TID 0000.0001)  cg2d: iter=   106 ; resid.=  4.72014082057363E-10
(PID.TID 0000.0001)  cg2d: iter=   107 ; resid.=  3.39400670013776E-10
(PID.TID 0000.0001)  cg2d: iter=   108 ; resid.=  2.42323010528980E-10
(PID.TID 0000.0001)  cg2d: iter=   109 ; resid.=  1.85015340259082E-10
(PID.TID 0000.0001)  cg2d: iter=   110 ; resid.=  1.58984204448228E-10
(PID.TID 0000.0001)  cg2d: iter=   111 ; resid.=  1.33821781327258E-10
(PID.TID 0000.0001)  cg2d: iter=   112 ; resid.=  9.95419338234557E-11
(PID.TID 0000.0001)  cg2d: iter=   113 ; resid.=  7.84040371846348E-11
(PID.TID 0000.0001)  cg2d: iter=   114 ; resid.=  6.01143790360670E-11
(PID.TID 0000.0001)  cg2d: iter=   115 ; resid.=  4.73238474290997E-11
(PID.TID 0000.0001)  cg2d: iter=   116 ; resid.=  3.56044480128198E-11
(PID.TID 0000.0001)  cg2d: iter=   117 ; resid.=  2.65862827833012E-11
(PID.TID 0000.0001)  cg2d: iter=   118 ; resid.=  2.24765976416809E-11
(PID.TID 0000.0001)  cg2d: iter=   119 ; resid.=  1.91556821204072E-11
(PID.TID 0000.0001)  cg2d: iter=   120 ; resid.=  1.33057018388654E-11
(PID.TID 0000.0001)  cg2d: iter=   121 ; resid.=  9.36989105506557E-12
(PID.TID 0000.0001)  cg2d: iter=   122 ; resid.=  7.27235089851519E-12
(PID.TID 0000.0001)  cg2d: iter=   123 ; resid.=  5.55974478773607E-12
(PID.TID 0000.0001)  cg2d: iter=   124 ; resid.=  4.03954140026802E-12
(PID.TID 0000.0001)  cg2d: iter=   125 ; resid.=  2.82679307834791E-12
(PID.TID 0000.0001)  cg2d: iter=   126 ; resid.=  2.07513981180873E-12
(PID.TID 0000.0001)  cg2d: iter=   127 ; resid.=  1.37776892785849E-12
(PID.TID 0000.0001)  cg2d: iter=   128 ; resid.=  9.77228150499052E-13
(PID.TID 0000.0001)  cg2d: iter=   129 ; resid.=  7.34080065473932E-13
(PID.TID 0000.0001)  cg2d: iter=   130 ; resid.=  5.81214796722533E-13
(PID.TID 0000.0001)  cg2d: iter=   131 ; resid.=  4.48381748821592E-13
(PID.TID 0000.0001)  cg2d: iter=   132 ; resid.=  3.49984101133175E-13
(PID.TID 0000.0001)  cg2d: iter=   133 ; resid.=  2.90622158397368E-13
(PID.TID 0000.0001)  cg2d: iter=   134 ; resid.=  2.34831184316752E-13
(PID.TID 0000.0001)  cg2d: iter=   135 ; resid.=  1.82174296660950E-13
(PID.TID 0000.0001)  cg2d: iter=   136 ; resid.=  1.37548815245311E-13
(PID.TID 0000.0001)  cg2d: iter=   137 ; resid.=  1.03500006652188E-13
(PID.TID 0000.0001)  cg2d: iter=   138 ; resid.=  7.53857548816205E-14
DEBUG_STATS_RL:    cg2d_x (SOLVE_FOR_PRESSURE)  min= -1.51091711145772E+01
DEBUG_STATS_RL:    cg2d_x (SOLVE_FOR_PRESSURE)  max=  8.63005438000582E+00
DEBUG_STATS_RL:    cg2d_x (SOLVE_FOR_PRESSURE) mean= -1.60714591569445E+00
DEBUG_STATS_RL:    cg2d_x (SOLVE_FOR_PRESSURE) S.D.=  6.16367676513836E+00
(PID.TID 0000.0001)      cg2d_init_res =   5.28741885511745E-01
(PID.TID 0000.0001)      cg2d_iters(min,last) =      -1     138
(PID.TID 0000.0001)      cg2d_last_res =   7.53857548816205E-14
(PID.TID 0000.0001) // =======================================================
(PID.TID 0000.0001) // Begin MONITOR dynamic field statistics
(PID.TID 0000.0001) // =======================================================
(PID.TID 0000.0001) %MON time_tsnumber                =                     5
(PID.TID 0000.0001) %MON time_secondsf                =   4.3200000000000E+05
(PID.TID 0000.0001) %MON dynstat_eta_max              =   8.7972012028603E-01
(PID.TID 0000.0001) %MON dynstat_eta_min              =  -1.5401805417509E+00
(PID.TID 0000.0001) %MON dynstat_eta_mean             =  -3.3221434911426E-04
(PID.TID 0000.0001) %MON dynstat_eta_sd               =   5.5247506874097E-01
(PID.TID 0000.0001) %MON dynstat_eta_del2             =   2.2589327639791E-03
(PID.TID 0000.0001) %MON dynstat_uvel_max             =   9.0992012993613E-02
(PID.TID 0000.0001) %MON dynstat_uvel_min             =  -7.0651280561783E-02
(PID.TID 0000.0001) %MON dynstat_uvel_mean            =  -6.8073000896296E-04
(PID.TID 0000.0001) %MON dynstat_uvel_sd              =   5.8728652699488E-03
(PID.TID 0000.0001) %MON dynstat_uvel_del2            =   6.6438491734010E-05
(PID.TID 0000.0001) %MON dynstat_vvel_max             =   7.3593379577905E-02
(PID.TID 0000.0001) %MON dynstat_vvel_min             =  -9.2389384565574E-02
(PID.TID 0000.0001) %MON dynstat_vvel_mean            =   2.6417644291619E-04
(PID.TID 0000.0001) %MON dynstat_vvel_sd              =   8.4090312474364E-03
(PID.TID 0000.0001) %MON dynstat_vvel_del2            =   8.9073648808555E-05
(PID.TID 0000.0001) %MON dynstat_wvel_max             =   2.0375069555699E-04
(PID.TID 0000.0001) %MON dynstat_wvel_min             =  -1.6730366102474E-04
(PID.TID 0000.0001) %MON dynstat_wvel_mean            =  -1.0586823468311E-23
(PID.TID 0000.0001) %MON dynstat_wvel_sd              =   2.2385678286119E-05
(PID.TID 0000.0001) %MON dynstat_wvel_del2            =   3.0445968528206E-07
(PID.TID 0000.0001) %MON dynstat_theta_max            =   2.9774710630964E+01
(PID.TID 0000.0001) %MON dynstat_theta_min            =  -1.9086430231439E+00
(PID.TID 0000.0001) %MON dynstat_theta_mean           =   3.6188987828116E+00
(PID.TID 0000.0001) %MON dynstat_theta_sd             =   4.4142006515538E+00
(PID.TID 0000.0001) %MON dynstat_theta_del2           =   5.4078378023601E-03
(PID.TID 0000.0001) %MON dynstat_salt_max             =   3.7440607295538E+01
(PID.TID 0000.0001) %MON dynstat_salt_min             =   2.9759092859697E+01
(PID.TID 0000.0001) %MON dynstat_salt_mean            =   3.4717942583675E+01
(PID.TID 0000.0001) %MON dynstat_salt_sd              =   2.9609030463313E-01
(PID.TID 0000.0001) %MON dynstat_salt_del2            =   1.0145555252931E-03
(PID.TID 0000.0001) %MON dynstat_sst_max              =   2.9774710630964E+01
(PID.TID 0000.0001) %MON dynstat_sst_min              =  -1.9086430231439E+00
(PID.TID 0000.0001) %MON dynstat_sst_mean             =   1.8531823020962E+01
(PID.TID 0000.0001) %MON dynstat_sst_sd               =   9.1261463888749E+00
(PID.TID 0000.0001) %MON dynstat_sst_del2             =   2.6475479351782E-02
(PID.TID 0000.0001) %MON dynstat_sss_max              =   3.7440607295538E+01
(PID.TID 0000.0001) %MON dynstat_sss_min              =   2.9759092859697E+01
(PID.TID 0000.0001) %MON dynstat_sss_mean             =   3.4851347491466E+01
(PID.TID 0000.0001) %MON dynstat_sss_sd               =   9.6532870180972E-01
(PID.TID 0000.0001) %MON dynstat_sss_del2             =   8.0136664976497E-03
(PID.TID 0000.0001) %MON forcing_qnet_max             =   4.3008355712891E+02
(PID.TID 0000.0001) %MON forcing_qnet_min             =  -1.8515833485921E+02
(PID.TID 0000.0001) %MON forcing_qnet_mean            =  -1.6650157515098E+01
(PID.TID 0000.0001) %MON forcing_qnet_sd              =   1.1200321531664E+02
(PID.TID 0000.0001) %MON forcing_qnet_del2            =   9.9601163526981E-01
(PID.TID 0000.0001) %MON forcing_qsw_max              =   0.0000000000000E+00
(PID.TID 0000.0001) %MON forcing_qsw_min              =   0.0000000000000E+00
(PID.TID 0000.0001) %MON forcing_qsw_mean             =   0.0000000000000E+00
(PID.TID 0000.0001) %MON forcing_qsw_sd               =   0.0000000000000E+00
(PID.TID 0000.0001) %MON forcing_qsw_del2             =   0.0000000000000E+00
(PID.TID 0000.0001) %MON forcing_empmr_max            =   8.2220427088942E-05
(PID.TID 0000.0001) %MON forcing_empmr_min            =  -7.3116771659443E-05
(PID.TID 0000.0001) %MON forcing_empmr_mean           =   8.1546972691007E-07
(PID.TID 0000.0001) %MON forcing_empmr_sd             =   2.7970424919056E-05
(PID.TID 0000.0001) %MON forcing_empmr_del2           =   3.6272300962791E-07
(PID.TID 0000.0001) %MON forcing_fu_max               =   2.7145579755306E-01
(PID.TID 0000.0001) %MON forcing_fu_min               =  -1.6193294972181E-01
(PID.TID 0000.0001) %MON forcing_fu_mean              =   1.6086356183975E-02
(PID.TID 0000.0001) %MON forcing_fu_sd                =   9.0157845327697E-02
(PID.TID 0000.0001) %MON forcing_fu_del2              =   6.6174969745051E-04
(PID.TID 0000.0001) %MON forcing_fv_max               =   2.1244236379862E-01
(PID.TID 0000.0001) %MON forcing_fv_min               =  -1.8456813246012E-01
(PID.TID 0000.0001) %MON forcing_fv_mean              =  -6.0702855349739E-03
(PID.TID 0000.0001) %MON forcing_fv_sd                =   4.5662631572644E-02
(PID.TID 0000.0001) %MON forcing_fv_del2              =   4.4897783530480E-04
(PID.TID 0000.0001) %MON trAdv_CFL_u_max              =   2.2734994092215E-02
(PID.TID 0000.0001) %MON trAdv_CFL_v_max              =   1.4737635874952E-02
(PID.TID 0000.0001) %MON trAdv_CFL_w_max              =   5.2216168250868E-02
(PID.TID 0000.0001) %MON advcfl_uvel_max              =   2.8999871038934E-02
(PID.TID 0000.0001) %MON advcfl_vvel_max              =   1.7949775673507E-02
(PID.TID 0000.0001) %MON advcfl_wvel_max              =   6.7729600092874E-02
(PID.TID 0000.0001) %MON advcfl_W_hf_max              =   7.6641389578778E-02
(PID.TID 0000.0001) %MON pe_b_mean                    =   3.9057705497856E-04
(PID.TID 0000.0001) %MON ke_max                       =   5.4126451671185E-03
(PID.TID 0000.0001) %MON ke_mean                      =   4.7657065285955E-05
(PID.TID 0000.0001) %MON ke_vol                       =   1.3226782436723E+18
(PID.TID 0000.0001) %MON vort_r_min                   =  -2.5025976669356E-07
(PID.TID 0000.0001) %MON vort_r_max                   =   2.1263323124168E-07
(PID.TID 0000.0001) %MON vort_a_mean                  =  -2.5274807041548E-05
(PID.TID 0000.0001) %MON vort_a_sd                    =   7.3604218711855E-05
(PID.TID 0000.0001) %MON vort_p_mean                  =  -3.1845655351043E-05
(PID.TID 0000.0001) %MON vort_p_sd                    =   1.3162482524337E-04
(PID.TID 0000.0001) %MON surfExpan_theta_mean         =  -9.2820053512582E-07
(PID.TID 0000.0001) %MON surfExpan_salt_mean          =  -2.4314059242134E-07
(PID.TID 0000.0001) // =======================================================
(PID.TID 0000.0001) // End MONITOR dynamic field statistics
(PID.TID 0000.0001) // =======================================================
 EXTERNAL_FIELDS_LOAD,         5 : iP,iLd,i0,i1=   12    1   12    1 ; Wght=  0.3333333333  0.6666666667
 EXTERNAL_FIELDS_LOAD: (fu0,1),fu,fv= -4.5368E-02 -3.5633E-02 -3.8878E-02 -6.1587E-02
 EXTERNAL_FIELDS_LOAD: SST,SSS,Q,E-P=  3.5491E-01  3.4481E+01  2.6532E+02  1.1107E-05
DEBUG_STATS_RL:          Uvel (THERMODYNAMICS)  min= -7.06512805617828E-02
DEBUG_STATS_RL:          Uvel (THERMODYNAMICS)  max=  9.09920129936125E-02
DEBUG_STATS_RL:          Uvel (THERMODYNAMICS) mean=  1.10408695016217E-03
DEBUG_STATS_RL:          Uvel (THERMODYNAMICS) S.D.=  9.84368987592512E-03
DEBUG_STATS_RL:          Vvel (THERMODYNAMICS)  min= -9.23893845655742E-02
DEBUG_STATS_RL:          Vvel (THERMODYNAMICS)  max=  7.35933795779052E-02
DEBUG_STATS_RL:          Vvel (THERMODYNAMICS) mean= -1.57032899216576E-03
DEBUG_STATS_RL:          Vvel (THERMODYNAMICS) S.D.=  1.29232933198318E-02
DEBUG_STATS_RL:          Wvel (THERMODYNAMICS)  min= -1.67303661024739E-04
DEBUG_STATS_RL:          Wvel (THERMODYNAMICS)  max=  2.03750695556989E-04
DEBUG_STATS_RL:          Wvel (THERMODYNAMICS) mean= -6.06846060898193E-07
DEBUG_STATS_RL:          Wvel (THERMODYNAMICS) S.D.=  2.13509821104647E-05
DEBUG_STATS_RL:         Theta (THERMODYNAMICS)  min= -1.90836508716875E+00
DEBUG_STATS_RL:         Theta (THERMODYNAMICS)  max=  2.97868547917890E+01
DEBUG_STATS_RL:         Theta (THERMODYNAMICS) mean=  5.89471952786663E+00
DEBUG_STATS_RL:         Theta (THERMODYNAMICS) S.D.=  6.86325823398211E+00
DEBUG_STATS_RL:          Salt (THERMODYNAMICS)  min=  2.97571478500577E+01
DEBUG_STATS_RL:          Salt (THERMODYNAMICS)  max=  3.74368880280818E+01
DEBUG_STATS_RL:          Salt (THERMODYNAMICS) mean=  3.47208766579607E+01
DEBUG_STATS_RL:          Salt (THERMODYNAMICS) S.D.=  4.86484962340096E-01
DEBUG_STATS_RL:         GtNm1 (THERMODYNAMICS)  min= -3.40668187569688E-06
DEBUG_STATS_RL:         GtNm1 (THERMODYNAMICS)  max=  1.76112899593777E-06
DEBUG_STATS_RL:         GtNm1 (THERMODYNAMICS) mean=  2.57427927341135E-08
DEBUG_STATS_RL:         GtNm1 (THERMODYNAMICS) S.D.=  2.42164198565979E-07
DEBUG_STATS_RL:         GsNm1 (THERMODYNAMICS)  min= -4.05143446276816E-07
DEBUG_STATS_RL:         GsNm1 (THERMODYNAMICS)  max=  3.45410279565218E-07
DEBUG_STATS_RL:         GsNm1 (THERMODYNAMICS) mean=  3.64851488087271E-10
DEBUG_STATS_RL:         GsNm1 (THERMODYNAMICS) S.D.=  1.84052321679080E-08
DEBUG_STATS_RL:                EtaN (DYNAMICS)  min= -1.54018054175091E+00
DEBUG_STATS_RL:                EtaN (DYNAMICS)  max=  8.79720120286028E-01
DEBUG_STATS_RL:                EtaN (DYNAMICS) mean= -1.63827310468343E-01
DEBUG_STATS_RL:                EtaN (DYNAMICS) S.D.=  6.28305480646112E-01
DEBUG_STATS_RL:                Uvel (DYNAMICS)  min= -7.06512805617828E-02
DEBUG_STATS_RL:                Uvel (DYNAMICS)  max=  9.09920129936125E-02
DEBUG_STATS_RL:                Uvel (DYNAMICS) mean=  1.10408695016217E-03
DEBUG_STATS_RL:                Uvel (DYNAMICS) S.D.=  9.84368987592512E-03
DEBUG_STATS_RL:                Vvel (DYNAMICS)  min= -9.23893845655742E-02
DEBUG_STATS_RL:                Vvel (DYNAMICS)  max=  7.35933795779052E-02
DEBUG_STATS_RL:                Vvel (DYNAMICS) mean= -1.57032899216576E-03
DEBUG_STATS_RL:                Vvel (DYNAMICS) S.D.=  1.29232933198318E-02
DEBUG_STATS_RL:                Wvel (DYNAMICS)  min= -1.67303661024739E-04
DEBUG_STATS_RL:                Wvel (DYNAMICS)  max=  2.03750695556989E-04
DEBUG_STATS_RL:                Wvel (DYNAMICS) mean= -6.06846060898193E-07
DEBUG_STATS_RL:                Wvel (DYNAMICS) S.D.=  2.13509821104647E-05
DEBUG_STATS_RL:               Theta (DYNAMICS)  min= -1.90836508716875E+00
DEBUG_STATS_RL:               Theta (DYNAMICS)  max=  2.97868547917890E+01
DEBUG_STATS_RL:               Theta (DYNAMICS) mean=  5.89471952786663E+00
DEBUG_STATS_RL:               Theta (DYNAMICS) S.D.=  6.86325823398211E+00
DEBUG_STATS_RL:                Salt (DYNAMICS)  min=  2.97571478500577E+01
DEBUG_STATS_RL:                Salt (DYNAMICS)  max=  3.74368880280818E+01
DEBUG_STATS_RL:                Salt (DYNAMICS) mean=  3.47208766579607E+01
DEBUG_STATS_RL:                Salt (DYNAMICS) S.D.=  4.86484962340096E-01
DEBUG_STATS_RL:                  Gu (DYNAMICS)  min= -6.93553654827921E-02
DEBUG_STATS_RL:                  Gu (DYNAMICS)  max=  1.07614796336761E-01
DEBUG_STATS_RL:                  Gu (DYNAMICS) mean=  1.57020739148666E-03
DEBUG_STATS_RL:                  Gu (DYNAMICS) S.D.=  1.20236417194767E-02
DEBUG_STATS_RL:                  Gv (DYNAMICS)  min= -8.15329066594450E-02
DEBUG_STATS_RL:                  Gv (DYNAMICS)  max=  7.25940527139747E-02
DEBUG_STATS_RL:                  Gv (DYNAMICS) mean=  2.33749958838556E-04
DEBUG_STATS_RL:                  Gv (DYNAMICS) S.D.=  1.30314938618092E-02
DEBUG_STATS_RL:               GuNm1 (DYNAMICS)  min= -7.55986645661747E-06
DEBUG_STATS_RL:               GuNm1 (DYNAMICS)  max=  7.98709759933409E-06
DEBUG_STATS_RL:               GuNm1 (DYNAMICS) mean= -3.10307594973304E-08
DEBUG_STATS_RL:               GuNm1 (DYNAMICS) S.D.=  1.28378054717112E-06
DEBUG_STATS_RL:               GvNm1 (DYNAMICS)  min= -1.11120434697114E-05
DEBUG_STATS_RL:               GvNm1 (DYNAMICS)  max=  1.64995660671540E-05
DEBUG_STATS_RL:               GvNm1 (DYNAMICS) mean=  7.78199021099706E-07
DEBUG_STATS_RL:               GvNm1 (DYNAMICS) S.D.=  2.78251919422458E-06
DEBUG_STATS_RL:               GtNm1 (DYNAMICS)  min= -3.40668187569688E-06
DEBUG_STATS_RL:               GtNm1 (DYNAMICS)  max=  1.76112899593777E-06
DEBUG_STATS_RL:               GtNm1 (DYNAMICS) mean=  2.57427927341135E-08
DEBUG_STATS_RL:               GtNm1 (DYNAMICS) S.D.=  2.42164198565979E-07
DEBUG_STATS_RL:               GsNm1 (DYNAMICS)  min= -4.05143446276816E-07
DEBUG_STATS_RL:               GsNm1 (DYNAMICS)  max=  3.45410279565218E-07
DEBUG_STATS_RL:               GsNm1 (DYNAMICS) mean=  3.64851488087271E-10
DEBUG_STATS_RL:               GsNm1 (DYNAMICS) S.D.=  1.84052321679080E-08
DEBUG_STATS_RL:    cg2d_b (SOLVE_FOR_PRESSURE)  min= -2.73788494250602E+04
DEBUG_STATS_RL:    cg2d_b (SOLVE_FOR_PRESSURE)  max=  1.81127550146530E+04
DEBUG_STATS_RL:    cg2d_b (SOLVE_FOR_PRESSURE) mean=  3.84428915866006E-01
DEBUG_STATS_RL:    cg2d_b (SOLVE_FOR_PRESSURE) S.D.=  4.22757173062689E+03
 cg2d: Sum(rhs),rhsMax =   3.25051256322910E-02  1.79831613507336E+00
(PID.TID 0000.0001)  cg2d: iter=     1 ; resid.=  2.24339219588009E-01
(PID.TID 0000.0001)  cg2d: iter=     2 ; resid.=  2.53794797699572E-01
(PID.TID 0000.0001)  cg2d: iter=     3 ; resid.=  2.70913430927803E-01
(PID.TID 0000.0001)  cg2d: iter=     4 ; resid.=  1.95450791376140E-01
(PID.TID 0000.0001)  cg2d: iter=     5 ; resid.=  1.74297632719642E-01
(PID.TID 0000.0001)  cg2d: iter=     6 ; resid.=  1.41021051625727E-01
(PID.TID 0000.0001)  cg2d: iter=     7 ; resid.=  1.07802054816871E-01
(PID.TID 0000.0001)  cg2d: iter=     8 ; resid.=  8.60932555755293E-02
(PID.TID 0000.0001)  cg2d: iter=     9 ; resid.=  7.37227429370829E-02
(PID.TID 0000.0001)  cg2d: iter=    10 ; resid.=  5.96182200148915E-02
(PID.TID 0000.0001)  cg2d: iter=    11 ; resid.=  5.06483045254228E-02
(PID.TID 0000.0001)  cg2d: iter=    12 ; resid.=  3.86097869874784E-02
(PID.TID 0000.0001)  cg2d: iter=    13 ; resid.=  3.54534513088025E-02
(PID.TID 0000.0001)  cg2d: iter=    14 ; resid.=  3.13412464736494E-02
(PID.TID 0000.0001)  cg2d: iter=    15 ; resid.=  2.61924249772511E-02
(PID.TID 0000.0001)  cg2d: iter=    16 ; resid.=  2.22091003917217E-02
(PID.TID 0000.0001)  cg2d: iter=    17 ; resid.=  2.13826661878349E-02
(PID.TID 0000.0001)  cg2d: iter=    18 ; resid.=  1.77084354535538E-02
(PID.TID 0000.0001)  cg2d: iter=    19 ; resid.=  1.31076326685756E-02
(PID.TID 0000.0001)  cg2d: iter=    20 ; resid.=  1.04714166117676E-02
(PID.TID 0000.0001)  cg2d: iter=    21 ; resid.=  8.83332399223227E-03
(PID.TID 0000.0001)  cg2d: iter=    22 ; resid.=  7.82128659472028E-03
(PID.TID 0000.0001)  cg2d: iter=    23 ; resid.=  6.49435779133384E-03
(PID.TID 0000.0001)  cg2d: iter=    24 ; resid.=  5.50524926117414E-03
(PID.TID 0000.0001)  cg2d: iter=    25 ; resid.=  4.76554115115199E-03
(PID.TID 0000.0001)  cg2d: iter=    26 ; resid.=  4.07554088929499E-03
(PID.TID 0000.0001)  cg2d: iter=    27 ; resid.=  3.87579268329283E-03
(PID.TID 0000.0001)  cg2d: iter=    28 ; resid.=  3.47513246950566E-03
(PID.TID 0000.0001)  cg2d: iter=    29 ; resid.=  2.79848748485887E-03
(PID.TID 0000.0001)  cg2d: iter=    30 ; resid.=  2.53216209689130E-03
(PID.TID 0000.0001)  cg2d: iter=    31 ; resid.=  2.03284475677081E-03
(PID.TID 0000.0001)  cg2d: iter=    32 ; resid.=  1.39651495676194E-03
(PID.TID 0000.0001)  cg2d: iter=    33 ; resid.=  1.10971201643603E-03
(PID.TID 0000.0001)  cg2d: iter=    34 ; resid.=  9.40942979407891E-04
(PID.TID 0000.0001)  cg2d: iter=    35 ; resid.=  7.58302575106789E-04
(PID.TID 0000.0001)  cg2d: iter=    36 ; resid.=  5.60122624211493E-04
(PID.TID 0000.0001)  cg2d: iter=    37 ; resid.=  4.57514181518116E-04
(PID.TID 0000.0001)  cg2d: iter=    38 ; resid.=  4.15759701511001E-04
(PID.TID 0000.0001)  cg2d: iter=    39 ; resid.=  3.47730711610114E-04
(PID.TID 0000.0001)  cg2d: iter=    40 ; resid.=  2.85036864737141E-04
(PID.TID 0000.0001)  cg2d: iter=    41 ; resid.=  2.58449183778054E-04
(PID.TID 0000.0001)  cg2d: iter=    42 ; resid.=  2.28541722068325E-04
(PID.TID 0000.0001)  cg2d: iter=    43 ; resid.=  1.99058949000871E-04
(PID.TID 0000.0001)  cg2d: iter=    44 ; resid.=  1.53491869582340E-04
(PID.TID 0000.0001)  cg2d: iter=    45 ; resid.=  1.27408119262937E-04
(PID.TID 0000.0001)  cg2d: iter=    46 ; resid.=  1.03082003550268E-04
(PID.TID 0000.0001)  cg2d: iter=    47 ; resid.=  8.09378585921528E-05
(PID.TID 0000.0001)  cg2d: iter=    48 ; resid.=  6.80276882603427E-05
(PID.TID 0000.0001)  cg2d: iter=    49 ; resid.=  5.50821605422316E-05
(PID.TID 0000.0001)  cg2d: iter=    50 ; resid.=  4.61961052374118E-05
(PID.TID 0000.0001)  cg2d: iter=    51 ; resid.=  3.99870686338877E-05
(PID.TID 0000.0001)  cg2d: iter=    52 ; resid.=  3.31371474475984E-05
(PID.TID 0000.0001)  cg2d: iter=    53 ; resid.=  2.85945226382252E-05
(PID.TID 0000.0001)  cg2d: iter=    54 ; resid.=  2.46240132568208E-05
(PID.TID 0000.0001)  cg2d: iter=    55 ; resid.=  2.17871493979863E-05
(PID.TID 0000.0001)  cg2d: iter=    56 ; resid.=  1.89927573876787E-05
(PID.TID 0000.0001)  cg2d: iter=    57 ; resid.=  1.40976541801817E-05
(PID.TID 0000.0001)  cg2d: iter=    58 ; resid.=  1.03473225846541E-05
(PID.TID 0000.0001)  cg2d: iter=    59 ; resid.=  8.90898040302292E-06
(PID.TID 0000.0001)  cg2d: iter=    60 ; resid.=  7.41751302063564E-06
(PID.TID 0000.0001)  cg2d: iter=    61 ; resid.=  5.83640425806957E-06
(PID.TID 0000.0001)  cg2d: iter=    62 ; resid.=  4.92910175007431E-06
(PID.TID 0000.0001)  cg2d: iter=    63 ; resid.=  4.26925170878853E-06
(PID.TID 0000.0001)  cg2d: iter=    64 ; resid.=  3.28693480530369E-06
(PID.TID 0000.0001)  cg2d: iter=    65 ; resid.=  2.52574843798262E-06
(PID.TID 0000.0001)  cg2d: iter=    66 ; resid.=  2.01375997192296E-06
(PID.TID 0000.0001)  cg2d: iter=    67 ; resid.=  1.62439850080053E-06
(PID.TID 0000.0001)  cg2d: iter=    68 ; resid.=  1.18798393018895E-06
(PID.TID 0000.0001)  cg2d: iter=    69 ; resid.=  8.91790560136847E-07
(PID.TID 0000.0001)  cg2d: iter=    70 ; resid.=  7.45991694560394E-07
(PID.TID 0000.0001)  cg2d: iter=    71 ; resid.=  5.87475883577004E-07
(PID.TID 0000.0001)  cg2d: iter=    72 ; resid.=  5.30548254185637E-07
(PID.TID 0000.0001)  cg2d: iter=    73 ; resid.=  4.91173894378066E-07
(PID.TID 0000.0001)  cg2d: iter=    74 ; resid.=  4.03310501705016E-07
(PID.TID 0000.0001)  cg2d: iter=    75 ; resid.=  3.37858263200240E-07
(PID.TID 0000.0001)  cg2d: iter=    76 ; resid.=  3.00453564253417E-07
(PID.TID 0000.0001)  cg2d: iter=    77 ; resid.=  2.49134389832459E-07
(PID.TID 0000.0001)  cg2d: iter=    78 ; resid.=  2.05519220621028E-07
(PID.TID 0000.0001)  cg2d: iter=    79 ; resid.=  1.74373583079575E-07
(PID.TID 0000.0001)  cg2d: iter=    80 ; resid.=  1.55091637022683E-07
(PID.TID 0000.0001)  cg2d: iter=    81 ; resid.=  1.24193428317875E-07
(PID.TID 0000.0001)  cg2d: iter=    82 ; resid.=  9.03932530049200E-08
(PID.TID 0000.0001)  cg2d: iter=    83 ; resid.=  6.65599473294233E-08
(PID.TID 0000.0001)  cg2d: iter=    84 ; resid.=  5.41541232785732E-08
(PID.TID 0000.0001)  cg2d: iter=    85 ; resid.=  4.33294786411000E-08
(PID.TID 0000.0001)  cg2d: iter=    86 ; resid.=  3.58396337553741E-08
(PID.TID 0000.0001)  cg2d: iter=    87 ; resid.=  2.94559387818243E-08
(PID.TID 0000.0001)  cg2d: iter=    88 ; resid.=  2.39576391567388E-08
(PID.TID 0000.0001)  cg2d: iter=    89 ; resid.=  2.02040466914059E-08
(PID.TID 0000.0001)  cg2d: iter=    90 ; resid.=  1.64076992393711E-08
(PID.TID 0000.0001)  cg2d: iter=    91 ; resid.=  1.36854024266099E-08
(PID.TID 0000.0001)  cg2d: iter=    92 ; resid.=  9.36724548046888E-09
(PID.TID 0000.0001)  cg2d: iter=    93 ; resid.=  6.65833622586112E-09
(PID.TID 0000.0001)  cg2d: iter=    94 ; resid.=  5.37192160174179E-09
(PID.TID 0000.0001)  cg2d: iter=    95 ; resid.=  4.28268015312919E-09
(PID.TID 0000.0001)  cg2d: iter=    96 ; resid.=  3.14949458591871E-09
(PID.TID 0000.0001)  cg2d: iter=    97 ; resid.=  2.71007601557089E-09
(PID.TID 0000.0001)  cg2d: iter=    98 ; resid.=  2.36205080011632E-09
(PID.TID 0000.0001)  cg2d: iter=    99 ; resid.=  2.09837085529360E-09
(PID.TID 0000.0001)  cg2d: iter=   100 ; resid.=  1.79820076620200E-09
(PID.TID 0000.0001)  cg2d: iter=   101 ; resid.=  1.60526324180402E-09
(PID.TID 0000.0001)  cg2d: iter=   102 ; resid.=  1.29420405345000E-09
(PID.TID 0000.0001)  cg2d: iter=   103 ; resid.=  9.30665964351236E-10
(PID.TID 0000.0001)  cg2d: iter=   104 ; resid.=  7.32259258055120E-10
(PID.TID 0000.0001)  cg2d: iter=   105 ; resid.=  5.91183626184394E-10
(PID.TID 0000.0001)  cg2d: iter=   106 ; resid.=  4.75983017494871E-10
(PID.TID 0000.0001)  cg2d: iter=   107 ; resid.=  3.48430989700729E-10
(PID.TID 0000.0001)  cg2d: iter=   108 ; resid.=  2.57638826251121E-10
(PID.TID 0000.0001)  cg2d: iter=   109 ; resid.=  1.88050296634771E-10
(PID.TID 0000.0001)  cg2d: iter=   110 ; resid.=  1.61599441504024E-10
(PID.TID 0000.0001)  cg2d: iter=   111 ; resid.=  1.30507652162840E-10
(PID.TID 0000.0001)  cg2d: iter=   112 ; resid.=  9.86722320017867E-11
(PID.TID 0000.0001)  cg2d: iter=   113 ; resid.=  7.90863646569215E-11
(PID.TID 0000.0001)  cg2d: iter=   114 ; resid.=  6.30087166504452E-11
(PID.TID 0000.0001)  cg2d: iter=   115 ; resid.=  4.93208116582432E-11
(PID.TID 0000.0001)  cg2d: iter=   116 ; resid.=  3.56341756366916E-11
(PID.TID 0000.0001)  cg2d: iter=   117 ; resid.=  2.37430596485536E-11
(PID.TID 0000.0001)  cg2d: iter=   118 ; resid.=  1.71844350756670E-11
(PID.TID 0000.0001)  cg2d: iter=   119 ; resid.=  1.37438919212442E-11
(PID.TID 0000.0001)  cg2d: iter=   120 ; resid.=  9.52224575114991E-12
(PID.TID 0000.0001)  cg2d: iter=   121 ; resid.=  6.83109782205812E-12
(PID.TID 0000.0001)  cg2d: iter=   122 ; resid.=  5.13863467417150E-12
(PID.TID 0000.0001)  cg2d: iter=   123 ; resid.=  3.82225366671538E-12
(PID.TID 0000.0001)  cg2d: iter=   124 ; resid.=  2.76200461742199E-12
(PID.TID 0000.0001)  cg2d: iter=   125 ; resid.=  2.07593552700740E-12
(PID.TID 0000.0001)  cg2d: iter=   126 ; resid.=  1.64354210289012E-12
(PID.TID 0000.0001)  cg2d: iter=   127 ; resid.=  1.22613678479539E-12
(PID.TID 0000.0001)  cg2d: iter=   128 ; resid.=  9.01481936804452E-13
(PID.TID 0000.0001)  cg2d: iter=   129 ; resid.=  6.59871890454442E-13
(PID.TID 0000.0001)  cg2d: iter=   130 ; resid.=  5.39950973702313E-13
(PID.TID 0000.0001)  cg2d: iter=   131 ; resid.=  4.17710385128071E-13
(PID.TID 0000.0001)  cg2d: iter=   132 ; resid.=  3.28378960074850E-13
(PID.TID 0000.0001)  cg2d: iter=   133 ; resid.=  2.52534134242024E-13
(PID.TID 0000.0001)  cg2d: iter=   134 ; resid.=  1.86125966696509E-13
(PID.TID 0000.0001)  cg2d: iter=   135 ; resid.=  1.35403589030965E-13
(PID.TID 0000.0001)  cg2d: iter=   136 ; resid.=  9.64283564139984E-14
DEBUG_STATS_RL:    cg2d_x (SOLVE_FOR_PRESSURE)  min= -1.46419160270880E+01
DEBUG_STATS_RL:    cg2d_x (SOLVE_FOR_PRESSURE)  max=  1.00231405866259E+01
DEBUG_STATS_RL:    cg2d_x (SOLVE_FOR_PRESSURE) mean= -1.57236583173563E+00
DEBUG_STATS_RL:    cg2d_x (SOLVE_FOR_PRESSURE) S.D.=  6.05142874033972E+00
(PID.TID 0000.0001)      cg2d_init_res =   6.36901857501090E-01
(PID.TID 0000.0001)      cg2d_iters(min,last) =      -1     136
(PID.TID 0000.0001)      cg2d_last_res =   9.64283564139984E-14
(PID.TID 0000.0001) // =======================================================
(PID.TID 0000.0001) // Begin MONITOR dynamic field statistics
(PID.TID 0000.0001) // =======================================================
(PID.TID 0000.0001) %MON time_tsnumber                =                     6
(PID.TID 0000.0001) %MON time_secondsf                =   5.1840000000000E+05
(PID.TID 0000.0001) %MON dynstat_eta_max              =   1.0217268691770E+00
(PID.TID 0000.0001) %MON dynstat_eta_min              =  -1.4925500537296E+00
(PID.TID 0000.0001) %MON dynstat_eta_mean             =  -4.0110390609431E-04
(PID.TID 0000.0001) %MON dynstat_eta_sd               =   5.4274681379061E-01
(PID.TID 0000.0001) %MON dynstat_eta_del2             =   2.1683720365395E-03
(PID.TID 0000.0001) %MON dynstat_uvel_max             =   1.1101949648568E-01
(PID.TID 0000.0001) %MON dynstat_uvel_min             =  -7.8873508517937E-02
(PID.TID 0000.0001) %MON dynstat_uvel_mean            =  -4.7714896618429E-04
(PID.TID 0000.0001) %MON dynstat_uvel_sd              =   7.1794560086350E-03
(PID.TID 0000.0001) %MON dynstat_uvel_del2            =   7.2915981592548E-05
(PID.TID 0000.0001) %MON dynstat_vvel_max             =   8.2448737742266E-02
(PID.TID 0000.0001) %MON dynstat_vvel_min             =  -1.0362736170674E-01
(PID.TID 0000.0001) %MON dynstat_vvel_mean            =  -9.0369735048233E-07
(PID.TID 0000.0001) %MON dynstat_vvel_sd              =   9.3216904419902E-03
(PID.TID 0000.0001) %MON dynstat_vvel_del2            =   9.7922966544208E-05
(PID.TID 0000.0001) %MON dynstat_wvel_max             =   2.2087666967009E-04
(PID.TID 0000.0001) %MON dynstat_wvel_min             =  -1.7323750744072E-04
(PID.TID 0000.0001) %MON dynstat_wvel_mean            =   3.8604328528644E-22
(PID.TID 0000.0001) %MON dynstat_wvel_sd              =   2.4099243039979E-05
(PID.TID 0000.0001) %MON dynstat_wvel_del2            =   3.1935201891296E-07
(PID.TID 0000.0001) %MON dynstat_theta_max            =   2.9786854791789E+01
(PID.TID 0000.0001) %MON dynstat_theta_min            =  -1.9083650871687E+00
(PID.TID 0000.0001) %MON dynstat_theta_mean           =   3.6190635301751E+00
(PID.TID 0000.0001) %MON dynstat_theta_sd             =   4.4144617078818E+00
(PID.TID 0000.0001) %MON dynstat_theta_del2           =   5.3309510096486E-03
(PID.TID 0000.0001) %MON dynstat_salt_max             =   3.7436888028082E+01
(PID.TID 0000.0001) %MON dynstat_salt_min             =   2.9757147850058E+01
(PID.TID 0000.0001) %MON dynstat_salt_mean            =   3.4717951633645E+01
(PID.TID 0000.0001) %MON dynstat_salt_sd              =   2.9609728907310E-01
(PID.TID 0000.0001) %MON dynstat_salt_del2            =   1.0126402715894E-03
(PID.TID 0000.0001) %MON dynstat_sst_max              =   2.9786854791789E+01
(PID.TID 0000.0001) %MON dynstat_sst_min              =  -1.9083650871687E+00
(PID.TID 0000.0001) %MON dynstat_sst_mean             =   1.8546459085966E+01
(PID.TID 0000.0001) %MON dynstat_sst_sd               =   9.1164504166183E+00
(PID.TID 0000.0001) %MON dynstat_sst_del2             =   2.6372288522069E-02
(PID.TID 0000.0001) %MON dynstat_sss_max              =   3.7436888028082E+01
(PID.TID 0000.0001) %MON dynstat_sss_min              =   2.9757147850058E+01
(PID.TID 0000.0001) %MON dynstat_sss_mean             =   3.4851820130083E+01
(PID.TID 0000.0001) %MON dynstat_sss_sd               =   9.6560960931551E-01
(PID.TID 0000.0001) %MON dynstat_sss_del2             =   8.0072268493624E-03
(PID.TID 0000.0001) %MON forcing_qnet_max             =   4.3113174438477E+02
(PID.TID 0000.0001) %MON forcing_qnet_min             =  -1.8469117228190E+02
(PID.TID 0000.0001) %MON forcing_qnet_mean            =  -1.6637645559275E+01
(PID.TID 0000.0001) %MON forcing_qnet_sd              =   1.1179629855085E+02
(PID.TID 0000.0001) %MON forcing_qnet_del2            =   9.9775446314289E-01
(PID.TID 0000.0001) %MON forcing_qsw_max              =   0.0000000000000E+00
(PID.TID 0000.0001) %MON forcing_qsw_min              =   0.0000000000000E+00
(PID.TID 0000.0001) %MON forcing_qsw_mean             =   0.0000000000000E+00
(PID.TID 0000.0001) %MON forcing_qsw_sd               =   0.0000000000000E+00
(PID.TID 0000.0001) %MON forcing_qsw_del2             =   0.0000000000000E+00
(PID.TID 0000.0001) %MON forcing_empmr_max            =   8.1964593334760E-05
(PID.TID 0000.0001) %MON forcing_empmr_min            =  -7.2853588051203E-05
(PID.TID 0000.0001) %MON forcing_empmr_mean           =   8.2523948465558E-07
(PID.TID 0000.0001) %MON forcing_empmr_sd             =   2.8025041303087E-05
(PID.TID 0000.0001) %MON forcing_empmr_del2           =   3.6259598317743E-07
(PID.TID 0000.0001) %MON forcing_fu_max               =   2.7059724926949E-01
(PID.TID 0000.0001) %MON forcing_fu_min               =  -1.6274636983871E-01
(PID.TID 0000.0001) %MON forcing_fu_mean              =   1.6078663362938E-02
(PID.TID 0000.0001) %MON forcing_fu_sd                =   9.0186169351879E-02
(PID.TID 0000.0001) %MON forcing_fu_del2              =   6.6508467741693E-04
(PID.TID 0000.0001) %MON forcing_fv_max               =   2.1432226896286E-01
(PID.TID 0000.0001) %MON forcing_fv_min               =  -1.8398347496986E-01
(PID.TID 0000.0001) %MON forcing_fv_mean              =  -5.9965230081131E-03
(PID.TID 0000.0001) %MON forcing_fv_sd                =   4.5826577347902E-02
(PID.TID 0000.0001) %MON forcing_fv_del2              =   4.5109215240509E-04
(PID.TID 0000.0001) %MON trAdv_CFL_u_max              =   2.9005761120152E-02
(PID.TID 0000.0001) %MON trAdv_CFL_v_max              =   1.7378322668033E-02
(PID.TID 0000.0001) %MON trAdv_CFL_w_max              =   6.0674433416533E-02
(PID.TID 0000.0001) %MON advcfl_uvel_max              =   3.4898632970963E-02
(PID.TID 0000.0001) %MON advcfl_vvel_max              =   2.0133134396551E-02
(PID.TID 0000.0001) %MON advcfl_wvel_max              =   7.4581012419883E-02
(PID.TID 0000.0001) %MON advcfl_W_hf_max              =   8.4394303527762E-02
(PID.TID 0000.0001) %MON pe_b_mean                    =   3.7694327763581E-04
(PID.TID 0000.0001) %MON ke_max                       =   7.3625182769630E-03
(PID.TID 0000.0001) %MON ke_mean                      =   6.2531408352211E-05
(PID.TID 0000.0001) %MON ke_vol                       =   1.3226782436723E+18
(PID.TID 0000.0001) %MON vort_r_min                   =  -2.4202982582089E-07
(PID.TID 0000.0001) %MON vort_r_max                   =   2.0918403577756E-07
(PID.TID 0000.0001) %MON vort_a_mean                  =  -2.5274806999827E-05
(PID.TID 0000.0001) %MON vort_a_sd                    =   7.3604258431785E-05
(PID.TID 0000.0001) %MON vort_p_mean                  =  -3.1845655298475E-05
(PID.TID 0000.0001) %MON vort_p_sd                    =   1.3162471858103E-04
(PID.TID 0000.0001) %MON surfExpan_theta_mean         =  -1.9718181740884E-06
(PID.TID 0000.0001) %MON surfExpan_salt_mean          =  -2.5929417455036E-07
(PID.TID 0000.0001) // =======================================================
(PID.TID 0000.0001) // End MONITOR dynamic field statistics
(PID.TID 0000.0001) // =======================================================
 EXTERNAL_FIELDS_LOAD,         6 : iP,iLd,i0,i1=   12    1   12    1 ; Wght=  0.3000000000  0.7000000000
 EXTERNAL_FIELDS_LOAD: (fu0,1),fu,fv= -4.5368E-02 -3.5633E-02 -3.8553E-02 -6.1154E-02
 EXTERNAL_FIELDS_LOAD: SST,SSS,Q,E-P=  4.1526E-01  3.4504E+01  2.6537E+02  1.1160E-05
DEBUG_STATS_RL:          Uvel (THERMODYNAMICS)  min= -7.88735085179373E-02
DEBUG_STATS_RL:          Uvel (THERMODYNAMICS)  max=  1.11019496485684E-01
DEBUG_STATS_RL:          Uvel (THERMODYNAMICS) mean=  1.90360337676813E-03
DEBUG_STATS_RL:          Uvel (THERMODYNAMICS) S.D.=  1.20980871171624E-02
DEBUG_STATS_RL:          Vvel (THERMODYNAMICS)  min= -1.03627361706741E-01
DEBUG_STATS_RL:          Vvel (THERMODYNAMICS)  max=  8.24487377422665E-02
DEBUG_STATS_RL:          Vvel (THERMODYNAMICS) mean= -1.89941104412012E-03
DEBUG_STATS_RL:          Vvel (THERMODYNAMICS) S.D.=  1.42218884594621E-02
DEBUG_STATS_RL:          Wvel (THERMODYNAMICS)  min= -1.73237507440721E-04
DEBUG_STATS_RL:          Wvel (THERMODYNAMICS)  max=  2.20876669670089E-04
DEBUG_STATS_RL:          Wvel (THERMODYNAMICS) mean= -6.31974073764572E-07
DEBUG_STATS_RL:          Wvel (THERMODYNAMICS) S.D.=  2.28486493628083E-05
DEBUG_STATS_RL:         Theta (THERMODYNAMICS)  min= -1.91312915583901E+00
DEBUG_STATS_RL:         Theta (THERMODYNAMICS)  max=  2.97977338539047E+01
DEBUG_STATS_RL:         Theta (THERMODYNAMICS) mean=  5.89705641129936E+00
DEBUG_STATS_RL:         Theta (THERMODYNAMICS) S.D.=  6.86411826432006E+00
DEBUG_STATS_RL:          Salt (THERMODYNAMICS)  min=  2.97551055062002E+01
DEBUG_STATS_RL:          Salt (THERMODYNAMICS)  max=  3.74342575608495E+01
DEBUG_STATS_RL:          Salt (THERMODYNAMICS) mean=  3.47209191074671E+01
DEBUG_STATS_RL:          Salt (THERMODYNAMICS) S.D.=  4.86584982451258E-01
DEBUG_STATS_RL:         GtNm1 (THERMODYNAMICS)  min= -4.31039251306891E-06
DEBUG_STATS_RL:         GtNm1 (THERMODYNAMICS)  max=  3.06288881967888E-06
DEBUG_STATS_RL:         GtNm1 (THERMODYNAMICS) mean=  2.72706641842567E-08
DEBUG_STATS_RL:         GtNm1 (THERMODYNAMICS) S.D.=  2.55562257951097E-07
DEBUG_STATS_RL:         GsNm1 (THERMODYNAMICS)  min= -7.92659409974102E-07
DEBUG_STATS_RL:         GsNm1 (THERMODYNAMICS)  max=  5.58909030913321E-07
DEBUG_STATS_RL:         GsNm1 (THERMODYNAMICS) mean=  3.90920267959870E-10
DEBUG_STATS_RL:         GsNm1 (THERMODYNAMICS) S.D.=  2.05793536123206E-08
DEBUG_STATS_RL:                EtaN (DYNAMICS)  min= -1.49255005372958E+00
DEBUG_STATS_RL:                EtaN (DYNAMICS)  max=  1.02172686917698E+00
DEBUG_STATS_RL:                EtaN (DYNAMICS) mean= -1.60281940034214E-01
DEBUG_STATS_RL:                EtaN (DYNAMICS) S.D.=  6.16863276283355E-01
DEBUG_STATS_RL:                Uvel (DYNAMICS)  min= -7.88735085179373E-02
DEBUG_STATS_RL:                Uvel (DYNAMICS)  max=  1.11019496485684E-01
DEBUG_STATS_RL:                Uvel (DYNAMICS) mean=  1.90360337676813E-03
DEBUG_STATS_RL:                Uvel (DYNAMICS) S.D.=  1.20980871171624E-02
DEBUG_STATS_RL:                Vvel (DYNAMICS)  min= -1.03627361706741E-01
DEBUG_STATS_RL:                Vvel (DYNAMICS)  max=  8.24487377422665E-02
DEBUG_STATS_RL:                Vvel (DYNAMICS) mean= -1.89941104412012E-03
DEBUG_STATS_RL:                Vvel (DYNAMICS) S.D.=  1.42218884594621E-02
DEBUG_STATS_RL:                Wvel (DYNAMICS)  min= -1.73237507440721E-04
DEBUG_STATS_RL:                Wvel (DYNAMICS)  max=  2.20876669670089E-04
DEBUG_STATS_RL:                Wvel (DYNAMICS) mean= -6.31974073764572E-07
DEBUG_STATS_RL:                Wvel (DYNAMICS) S.D.=  2.28486493628083E-05
DEBUG_STATS_RL:               Theta (DYNAMICS)  min= -1.91312915583901E+00
DEBUG_STATS_RL:               Theta (DYNAMICS)  max=  2.97977338539047E+01
DEBUG_STATS_RL:               Theta (DYNAMICS) mean=  5.89705641129936E+00
DEBUG_STATS_RL:               Theta (DYNAMICS) S.D.=  6.86411826432006E+00
DEBUG_STATS_RL:                Salt (DYNAMICS)  min=  2.97551055062002E+01
DEBUG_STATS_RL:                Salt (DYNAMICS)  max=  3.74342575608495E+01
DEBUG_STATS_RL:                Salt (DYNAMICS) mean=  3.47209191074671E+01
DEBUG_STATS_RL:                Salt (DYNAMICS) S.D.=  4.86584982451258E-01
DEBUG_STATS_RL:                  Gu (DYNAMICS)  min= -7.65391799643550E-02
DEBUG_STATS_RL:                  Gu (DYNAMICS)  max=  1.26723640432102E-01
DEBUG_STATS_RL:                  Gu (DYNAMICS) mean=  2.41942846806879E-03
DEBUG_STATS_RL:                  Gu (DYNAMICS) S.D.=  1.43354444513284E-02
DEBUG_STATS_RL:                  Gv (DYNAMICS)  min= -8.94305944525668E-02
DEBUG_STATS_RL:                  Gv (DYNAMICS)  max=  8.16731458674680E-02
DEBUG_STATS_RL:                  Gv (DYNAMICS) mean=  9.52460818838122E-06
DEBUG_STATS_RL:                  Gv (DYNAMICS) S.D.=  1.38701455640519E-02
DEBUG_STATS_RL:               GuNm1 (DYNAMICS)  min= -7.05206008051487E-06
DEBUG_STATS_RL:               GuNm1 (DYNAMICS)  max=  7.73838294577221E-06
DEBUG_STATS_RL:               GuNm1 (DYNAMICS) mean= -3.00330868328043E-08
DEBUG_STATS_RL:               GuNm1 (DYNAMICS) S.D.=  1.24582716214508E-06
DEBUG_STATS_RL:               GvNm1 (DYNAMICS)  min= -1.07049465089297E-05
DEBUG_STATS_RL:               GvNm1 (DYNAMICS)  max=  1.63065913777202E-05
DEBUG_STATS_RL:               GvNm1 (DYNAMICS) mean=  7.77264092528176E-07
DEBUG_STATS_RL:               GvNm1 (DYNAMICS) S.D.=  2.74929515267396E-06
DEBUG_STATS_RL:               GtNm1 (DYNAMICS)  min= -4.31039251306891E-06
DEBUG_STATS_RL:               GtNm1 (DYNAMICS)  max=  3.06288881967888E-06
DEBUG_STATS_RL:               GtNm1 (DYNAMICS) mean=  2.72706641842567E-08
DEBUG_STATS_RL:               GtNm1 (DYNAMICS) S.D.=  2.55562257951097E-07
DEBUG_STATS_RL:               GsNm1 (DYNAMICS)  min= -7.92659409974102E-07
DEBUG_STATS_RL:               GsNm1 (DYNAMICS)  max=  5.58909030913321E-07
DEBUG_STATS_RL:               GsNm1 (DYNAMICS) mean=  3.90920267959870E-10
DEBUG_STATS_RL:               GsNm1 (DYNAMICS) S.D.=  2.05793536123206E-08
DEBUG_STATS_RL:    cg2d_b (SOLVE_FOR_PRESSURE)  min= -2.39781271229591E+04
DEBUG_STATS_RL:    cg2d_b (SOLVE_FOR_PRESSURE)  max=  1.72638326396139E+04
DEBUG_STATS_RL:    cg2d_b (SOLVE_FOR_PRESSURE) mean=  4.51236202110300E-01
DEBUG_STATS_RL:    cg2d_b (SOLVE_FOR_PRESSURE) S.D.=  3.99157185564010E+03
 cg2d: Sum(rhs),rhsMax =   4.35651960025079E-02  1.57494758909003E+00
(PID.TID 0000.0001)  cg2d: iter=     1 ; resid.=  2.24717392653675E-01
(PID.TID 0000.0001)  cg2d: iter=     2 ; resid.=  2.36135410740833E-01
(PID.TID 0000.0001)  cg2d: iter=     3 ; resid.=  2.59334367813915E-01
(PID.TID 0000.0001)  cg2d: iter=     4 ; resid.=  2.02558391112263E-01
(PID.TID 0000.0001)  cg2d: iter=     5 ; resid.=  1.69891819450509E-01
(PID.TID 0000.0001)  cg2d: iter=     6 ; resid.=  1.43285225403236E-01
(PID.TID 0000.0001)  cg2d: iter=     7 ; resid.=  1.01970380439507E-01
(PID.TID 0000.0001)  cg2d: iter=     8 ; resid.=  8.75482444130589E-02
(PID.TID 0000.0001)  cg2d: iter=     9 ; resid.=  8.67505139537591E-02
(PID.TID 0000.0001)  cg2d: iter=    10 ; resid.=  7.54034264544035E-02
(PID.TID 0000.0001)  cg2d: iter=    11 ; resid.=  6.27482623176812E-02
(PID.TID 0000.0001)  cg2d: iter=    12 ; resid.=  4.53580205720661E-02
(PID.TID 0000.0001)  cg2d: iter=    13 ; resid.=  3.57079139721718E-02
(PID.TID 0000.0001)  cg2d: iter=    14 ; resid.=  3.25307376575099E-02
(PID.TID 0000.0001)  cg2d: iter=    15 ; resid.=  2.89748118004455E-02
(PID.TID 0000.0001)  cg2d: iter=    16 ; resid.=  2.45586001722680E-02
(PID.TID 0000.0001)  cg2d: iter=    17 ; resid.=  2.37858856619530E-02
(PID.TID 0000.0001)  cg2d: iter=    18 ; resid.=  2.06596147127041E-02
(PID.TID 0000.0001)  cg2d: iter=    19 ; resid.=  1.55923377435842E-02
(PID.TID 0000.0001)  cg2d: iter=    20 ; resid.=  1.30726013242524E-02
(PID.TID 0000.0001)  cg2d: iter=    21 ; resid.=  1.18122414681619E-02
(PID.TID 0000.0001)  cg2d: iter=    22 ; resid.=  1.04713694840955E-02
(PID.TID 0000.0001)  cg2d: iter=    23 ; resid.=  8.55196675266841E-03
(PID.TID 0000.0001)  cg2d: iter=    24 ; resid.=  6.82014448266207E-03
(PID.TID 0000.0001)  cg2d: iter=    25 ; resid.=  5.64623188631238E-03
(PID.TID 0000.0001)  cg2d: iter=    26 ; resid.=  4.58180095657624E-03
(PID.TID 0000.0001)  cg2d: iter=    27 ; resid.=  4.03720659204378E-03
(PID.TID 0000.0001)  cg2d: iter=    28 ; resid.=  3.40283916169122E-03
(PID.TID 0000.0001)  cg2d: iter=    29 ; resid.=  2.60293252386894E-03
(PID.TID 0000.0001)  cg2d: iter=    30 ; resid.=  2.20693752664132E-03
(PID.TID 0000.0001)  cg2d: iter=    31 ; resid.=  1.81132089653236E-03
(PID.TID 0000.0001)  cg2d: iter=    32 ; resid.=  1.28790480720959E-03
(PID.TID 0000.0001)  cg2d: iter=    33 ; resid.=  1.08329803930508E-03
(PID.TID 0000.0001)  cg2d: iter=    34 ; resid.=  9.37541784340071E-04
(PID.TID 0000.0001)  cg2d: iter=    35 ; resid.=  7.45356058530638E-04
(PID.TID 0000.0001)  cg2d: iter=    36 ; resid.=  5.54612712735336E-04
(PID.TID 0000.0001)  cg2d: iter=    37 ; resid.=  4.65063013421509E-04
(PID.TID 0000.0001)  cg2d: iter=    38 ; resid.=  4.61996580125172E-04
(PID.TID 0000.0001)  cg2d: iter=    39 ; resid.=  4.08357152861555E-04
(PID.TID 0000.0001)  cg2d: iter=    40 ; resid.=  3.40282998727853E-04
(PID.TID 0000.0001)  cg2d: iter=    41 ; resid.=  3.09897034780377E-04
(PID.TID 0000.0001)  cg2d: iter=    42 ; resid.=  2.82573169308523E-04
(PID.TID 0000.0001)  cg2d: iter=    43 ; resid.=  2.30376787799141E-04
(PID.TID 0000.0001)  cg2d: iter=    44 ; resid.=  1.59792714499312E-04
(PID.TID 0000.0001)  cg2d: iter=    45 ; resid.=  1.21518616682627E-04
(PID.TID 0000.0001)  cg2d: iter=    46 ; resid.=  1.02274164768711E-04
(PID.TID 0000.0001)  cg2d: iter=    47 ; resid.=  8.38955907892867E-05
(PID.TID 0000.0001)  cg2d: iter=    48 ; resid.=  6.86832432390392E-05
(PID.TID 0000.0001)  cg2d: iter=    49 ; resid.=  5.56984325763992E-05
(PID.TID 0000.0001)  cg2d: iter=    50 ; resid.=  4.37214225100627E-05
(PID.TID 0000.0001)  cg2d: iter=    51 ; resid.=  3.77973057744466E-05
(PID.TID 0000.0001)  cg2d: iter=    52 ; resid.=  3.41999314478376E-05
(PID.TID 0000.0001)  cg2d: iter=    53 ; resid.=  3.17845452074278E-05
(PID.TID 0000.0001)  cg2d: iter=    54 ; resid.=  2.60800115502472E-05
(PID.TID 0000.0001)  cg2d: iter=    55 ; resid.=  2.05415129999014E-05
(PID.TID 0000.0001)  cg2d: iter=    56 ; resid.=  1.72756997133175E-05
(PID.TID 0000.0001)  cg2d: iter=    57 ; resid.=  1.36041461398397E-05
(PID.TID 0000.0001)  cg2d: iter=    58 ; resid.=  1.00824897679241E-05
(PID.TID 0000.0001)  cg2d: iter=    59 ; resid.=  8.79266888414026E-06
(PID.TID 0000.0001)  cg2d: iter=    60 ; resid.=  7.74145325983190E-06
(PID.TID 0000.0001)  cg2d: iter=    61 ; resid.=  5.79691013647307E-06
(PID.TID 0000.0001)  cg2d: iter=    62 ; resid.=  4.27307504602244E-06
(PID.TID 0000.0001)  cg2d: iter=    63 ; resid.=  3.44680159823060E-06
(PID.TID 0000.0001)  cg2d: iter=    64 ; resid.=  2.89861135073923E-06
(PID.TID 0000.0001)  cg2d: iter=    65 ; resid.=  2.35800993288423E-06
(PID.TID 0000.0001)  cg2d: iter=    66 ; resid.=  1.82079037981906E-06
(PID.TID 0000.0001)  cg2d: iter=    67 ; resid.=  1.47829045210145E-06
(PID.TID 0000.0001)  cg2d: iter=    68 ; resid.=  1.16050762030164E-06
(PID.TID 0000.0001)  cg2d: iter=    69 ; resid.=  8.88936857013628E-07
(PID.TID 0000.0001)  cg2d: iter=    70 ; resid.=  7.29424058207565E-07
(PID.TID 0000.0001)  cg2d: iter=    71 ; resid.=  5.56066678220365E-07
(PID.TID 0000.0001)  cg2d: iter=    72 ; resid.=  4.03146253153631E-07
(PID.TID 0000.0001)  cg2d: iter=    73 ; resid.=  3.17690477445281E-07
(PID.TID 0000.0001)  cg2d: iter=    74 ; resid.=  2.51686541029986E-07
(PID.TID 0000.0001)  cg2d: iter=    75 ; resid.=  1.90196487119570E-07
(PID.TID 0000.0001)  cg2d: iter=    76 ; resid.=  1.62121417553992E-07
(PID.TID 0000.0001)  cg2d: iter=    77 ; resid.=  1.48550654166297E-07
(PID.TID 0000.0001)  cg2d: iter=    78 ; resid.=  1.36921732576537E-07
(PID.TID 0000.0001)  cg2d: iter=    79 ; resid.=  1.24925299416988E-07
(PID.TID 0000.0001)  cg2d: iter=    80 ; resid.=  1.10356299288770E-07
(PID.TID 0000.0001)  cg2d: iter=    81 ; resid.=  9.31226193900637E-08
(PID.TID 0000.0001)  cg2d: iter=    82 ; resid.=  7.25359510547255E-08
(PID.TID 0000.0001)  cg2d: iter=    83 ; resid.=  5.17053137872459E-08
(PID.TID 0000.0001)  cg2d: iter=    84 ; resid.=  4.08449312215565E-08
(PID.TID 0000.0001)  cg2d: iter=    85 ; resid.=  3.25000390522675E-08
(PID.TID 0000.0001)  cg2d: iter=    86 ; resid.=  2.64326799456469E-08
(PID.TID 0000.0001)  cg2d: iter=    87 ; resid.=  2.15339696181316E-08
(PID.TID 0000.0001)  cg2d: iter=    88 ; resid.=  1.71902424208229E-08
(PID.TID 0000.0001)  cg2d: iter=    89 ; resid.=  1.43792410005665E-08
(PID.TID 0000.0001)  cg2d: iter=    90 ; resid.=  1.15286538489954E-08
(PID.TID 0000.0001)  cg2d: iter=    91 ; resid.=  9.50913510763385E-09
(PID.TID 0000.0001)  cg2d: iter=    92 ; resid.=  7.26442140217508E-09
(PID.TID 0000.0001)  cg2d: iter=    93 ; resid.=  5.34320005524673E-09
(PID.TID 0000.0001)  cg2d: iter=    94 ; resid.=  4.27095559524030E-09
(PID.TID 0000.0001)  cg2d: iter=    95 ; resid.=  3.40258765644574E-09
(PID.TID 0000.0001)  cg2d: iter=    96 ; resid.=  2.62829559247332E-09
(PID.TID 0000.0001)  cg2d: iter=    97 ; resid.=  2.10856127590563E-09
(PID.TID 0000.0001)  cg2d: iter=    98 ; resid.=  1.66139395175495E-09
(PID.TID 0000.0001)  cg2d: iter=    99 ; resid.=  1.36511867080515E-09
(PID.TID 0000.0001)  cg2d: iter=   100 ; resid.=  1.09389036851489E-09
(PID.TID 0000.0001)  cg2d: iter=   101 ; resid.=  9.78390301020399E-10
(PID.TID 0000.0001)  cg2d: iter=   102 ; resid.=  8.33514815332187E-10
(PID.TID 0000.0001)  cg2d: iter=   103 ; resid.=  6.52388359062232E-10
(PID.TID 0000.0001)  cg2d: iter=   104 ; resid.=  5.01769694270468E-10
(PID.TID 0000.0001)  cg2d: iter=   105 ; resid.=  4.27462528995495E-10
(PID.TID 0000.0001)  cg2d: iter=   106 ; resid.=  4.02173776741797E-10
(PID.TID 0000.0001)  cg2d: iter=   107 ; resid.=  3.37172844281477E-10
(PID.TID 0000.0001)  cg2d: iter=   108 ; resid.=  2.47942456656431E-10
(PID.TID 0000.0001)  cg2d: iter=   109 ; resid.=  1.77231163473072E-10
(PID.TID 0000.0001)  cg2d: iter=   110 ; resid.=  1.35033137711588E-10
(PID.TID 0000.0001)  cg2d: iter=   111 ; resid.=  9.85706516525126E-11
(PID.TID 0000.0001)  cg2d: iter=   112 ; resid.=  7.28954844435209E-11
(PID.TID 0000.0001)  cg2d: iter=   113 ; resid.=  5.71074538248916E-11
(PID.TID 0000.0001)  cg2d: iter=   114 ; resid.=  4.67067996178494E-11
(PID.TID 0000.0001)  cg2d: iter=   115 ; resid.=  3.89828224715552E-11
(PID.TID 0000.0001)  cg2d: iter=   116 ; resid.=  3.06826181825126E-11
(PID.TID 0000.0001)  cg2d: iter=   117 ; resid.=  2.11881676137784E-11
(PID.TID 0000.0001)  cg2d: iter=   118 ; resid.=  1.49740318493806E-11
(PID.TID 0000.0001)  cg2d: iter=   119 ; resid.=  1.30556914761823E-11
(PID.TID 0000.0001)  cg2d: iter=   120 ; resid.=  1.08742711097729E-11
(PID.TID 0000.0001)  cg2d: iter=   121 ; resid.=  8.10982724833583E-12
(PID.TID 0000.0001)  cg2d: iter=   122 ; resid.=  5.70598811207409E-12
(PID.TID 0000.0001)  cg2d: iter=   123 ; resid.=  3.98180967092198E-12
(PID.TID 0000.0001)  cg2d: iter=   124 ; resid.=  2.82991921422314E-12
(PID.TID 0000.0001)  cg2d: iter=   125 ; resid.=  2.16557113839812E-12
(PID.TID 0000.0001)  cg2d: iter=   126 ; resid.=  1.76730851850743E-12
(PID.TID 0000.0001)  cg2d: iter=   127 ; resid.=  1.41115431308835E-12
(PID.TID 0000.0001)  cg2d: iter=   128 ; resid.=  1.08914891264704E-12
(PID.TID 0000.0001)  cg2d: iter=   129 ; resid.=  7.67663101767181E-13
(PID.TID 0000.0001)  cg2d: iter=   130 ; resid.=  5.71974074318471E-13
(PID.TID 0000.0001)  cg2d: iter=   131 ; resid.=  4.08742399870382E-13
(PID.TID 0000.0001)  cg2d: iter=   132 ; resid.=  2.75094396179483E-13
(PID.TID 0000.0001)  cg2d: iter=   133 ; resid.=  1.90766515007866E-13
(PID.TID 0000.0001)  cg2d: iter=   134 ; resid.=  1.31449067957814E-13
(PID.TID 0000.0001)  cg2d: iter=   135 ; resid.=  9.70841366351409E-14
DEBUG_STATS_RL:    cg2d_x (SOLVE_FOR_PRESSURE)  min= -1.42894978373876E+01
DEBUG_STATS_RL:    cg2d_x (SOLVE_FOR_PRESSURE)  max=  1.05817983569805E+01
DEBUG_STATS_RL:    cg2d_x (SOLVE_FOR_PRESSURE) mean= -1.53715566219616E+00
DEBUG_STATS_RL:    cg2d_x (SOLVE_FOR_PRESSURE) S.D.=  5.93464731396181E+00
(PID.TID 0000.0001)      cg2d_init_res =   7.45908107570746E-01
(PID.TID 0000.0001)      cg2d_iters(min,last) =      -1     135
(PID.TID 0000.0001)      cg2d_last_res =   9.70841366351409E-14
(PID.TID 0000.0001) // =======================================================
(PID.TID 0000.0001) // Begin MONITOR dynamic field statistics
(PID.TID 0000.0001) // =======================================================
(PID.TID 0000.0001) %MON time_tsnumber                =                     7
(PID.TID 0000.0001) %MON time_secondsf                =   6.0480000000000E+05
(PID.TID 0000.0001) %MON dynstat_eta_max              =   1.0786746541264E+00
(PID.TID 0000.0001) %MON dynstat_eta_min              =  -1.4566256714971E+00
(PID.TID 0000.0001) %MON dynstat_eta_mean             =  -4.7080902545986E-04
(PID.TID 0000.0001) %MON dynstat_eta_sd               =   5.3205189118979E-01
(PID.TID 0000.0001) %MON dynstat_eta_del2             =   2.0739512302751E-03
(PID.TID 0000.0001) %MON dynstat_uvel_max             =   1.2972803729229E-01
(PID.TID 0000.0001) %MON dynstat_uvel_min             =  -8.4548073676803E-02
(PID.TID 0000.0001) %MON dynstat_uvel_mean            =  -2.5744865006502E-04
(PID.TID 0000.0001) %MON dynstat_uvel_sd              =   8.5119439776914E-03
(PID.TID 0000.0001) %MON dynstat_uvel_del2            =   7.7662844985838E-05
(PID.TID 0000.0001) %MON dynstat_vvel_max             =   8.8561469892668E-02
(PID.TID 0000.0001) %MON dynstat_vvel_min             =  -1.1107156318536E-01
(PID.TID 0000.0001) %MON dynstat_vvel_mean            =  -1.9250297150626E-04
(PID.TID 0000.0001) %MON dynstat_vvel_sd              =   9.9424350477719E-03
(PID.TID 0000.0001) %MON dynstat_vvel_del2            =   1.0348394005797E-04
(PID.TID 0000.0001) %MON dynstat_wvel_max             =   2.3173765762346E-04
(PID.TID 0000.0001) %MON dynstat_wvel_min             =  -1.8250366730198E-04
(PID.TID 0000.0001) %MON dynstat_wvel_mean            =   5.1445546885374E-22
(PID.TID 0000.0001) %MON dynstat_wvel_sd              =   2.4872951142588E-05
(PID.TID 0000.0001) %MON dynstat_wvel_del2            =   3.1977026311566E-07
(PID.TID 0000.0001) %MON dynstat_theta_max            =   2.9797733853905E+01
(PID.TID 0000.0001) %MON dynstat_theta_min            =  -1.9131291558390E+00
(PID.TID 0000.0001) %MON dynstat_theta_mean           =   3.6192127830249E+00
(PID.TID 0000.0001) %MON dynstat_theta_sd             =   4.4146910900291E+00
(PID.TID 0000.0001) %MON dynstat_theta_del2           =   5.2563314847922E-03
(PID.TID 0000.0001) %MON dynstat_salt_max             =   3.7434257560850E+01
(PID.TID 0000.0001) %MON dynstat_salt_min             =   2.9755105506200E+01
(PID.TID 0000.0001) %MON dynstat_salt_mean            =   3.4717958598567E+01
(PID.TID 0000.0001) %MON dynstat_salt_sd              =   2.9610900237012E-01
(PID.TID 0000.0001) %MON dynstat_salt_del2            =   1.0116019117433E-03
(PID.TID 0000.0001) %MON dynstat_sst_max              =   2.9797733853905E+01
(PID.TID 0000.0001) %MON dynstat_sst_min              =  -1.9131291558390E+00
(PID.TID 0000.0001) %MON dynstat_sst_mean             =   1.8561782603745E+01
(PID.TID 0000.0001) %MON dynstat_sst_sd               =   9.1067849085337E+00
(PID.TID 0000.0001) %MON dynstat_sst_del2             =   2.6292454394196E-02
(PID.TID 0000.0001) %MON dynstat_sss_max              =   3.7434257560850E+01
(PID.TID 0000.0001) %MON dynstat_sss_min              =   2.9755105506200E+01
(PID.TID 0000.0001) %MON dynstat_sss_mean             =   3.4852462482860E+01
(PID.TID 0000.0001) %MON dynstat_sss_sd               =   9.6614611489416E-01
(PID.TID 0000.0001) %MON dynstat_sss_del2             =   8.0071126691140E-03
(PID.TID 0000.0001) %MON forcing_qnet_max             =   4.3217993164062E+02
(PID.TID 0000.0001) %MON forcing_qnet_min             =  -1.8422400970459E+02
(PID.TID 0000.0001) %MON forcing_qnet_mean            =  -1.6625133603451E+01
(PID.TID 0000.0001) %MON forcing_qnet_sd              =   1.1159198929743E+02
(PID.TID 0000.0001) %MON forcing_qnet_del2            =   9.9967143614056E-01
(PID.TID 0000.0001) %MON forcing_qsw_max              =   0.0000000000000E+00
(PID.TID 0000.0001) %MON forcing_qsw_min              =   0.0000000000000E+00
(PID.TID 0000.0001) %MON forcing_qsw_mean             =   0.0000000000000E+00
(PID.TID 0000.0001) %MON forcing_qsw_sd               =   0.0000000000000E+00
(PID.TID 0000.0001) %MON forcing_qsw_del2             =   0.0000000000000E+00
(PID.TID 0000.0001) %MON forcing_empmr_max            =   8.1887607450426E-05
(PID.TID 0000.0001) %MON forcing_empmr_min            =  -7.2590404442963E-05
(PID.TID 0000.0001) %MON forcing_empmr_mean           =   8.3500924240108E-07
(PID.TID 0000.0001) %MON forcing_empmr_sd             =   2.8083907977094E-05
(PID.TID 0000.0001) %MON forcing_empmr_del2           =   3.6258320756835E-07
(PID.TID 0000.0001) %MON forcing_fu_max               =   2.6977391839027E-01
(PID.TID 0000.0001) %MON forcing_fu_min               =  -1.6355978995562E-01
(PID.TID 0000.0001) %MON forcing_fu_mean              =   1.6070970541901E-02
(PID.TID 0000.0001) %MON forcing_fu_sd                =   9.0225339362360E-02
(PID.TID 0000.0001) %MON forcing_fu_del2              =   6.6893050433667E-04
(PID.TID 0000.0001) %MON forcing_fv_max               =   2.1620217412710E-01
(PID.TID 0000.0001) %MON forcing_fv_min               =  -1.8339881747961E-01
(PID.TID 0000.0001) %MON forcing_fv_mean              =  -5.9227604812523E-03
(PID.TID 0000.0001) %MON forcing_fv_sd                =   4.6005326854092E-02
(PID.TID 0000.0001) %MON forcing_fv_del2              =   4.5373726950670E-04
(PID.TID 0000.0001) %MON trAdv_CFL_u_max              =   3.4905721132919E-02
(PID.TID 0000.0001) %MON trAdv_CFL_v_max              =   1.9492171502652E-02
(PID.TID 0000.0001) %MON trAdv_CFL_w_max              =   6.6812156959478E-02
(PID.TID 0000.0001) %MON advcfl_uvel_max              =   4.0153662388023E-02
(PID.TID 0000.0001) %MON advcfl_vvel_max              =   2.1579423353208E-02
(PID.TID 0000.0001) %MON advcfl_wvel_max              =   7.8851541104660E-02
(PID.TID 0000.0001) %MON advcfl_W_hf_max              =   8.9226743881589E-02
(PID.TID 0000.0001) %MON pe_b_mean                    =   3.6223425946965E-04
(PID.TID 0000.0001) %MON ke_max                       =   9.3578027420664E-03
(PID.TID 0000.0001) %MON ke_mean                      =   7.7342332524634E-05
(PID.TID 0000.0001) %MON ke_vol                       =   1.3226782436723E+18
(PID.TID 0000.0001) %MON vort_r_min                   =  -2.5375791451816E-07
(PID.TID 0000.0001) %MON vort_r_max                   =   2.2562677669886E-07
(PID.TID 0000.0001) %MON vort_a_mean                  =  -2.5274807004843E-05
(PID.TID 0000.0001) %MON vort_a_sd                    =   7.3604299363359E-05
(PID.TID 0000.0001) %MON vort_p_mean                  =  -3.1845655304796E-05
(PID.TID 0000.0001) %MON vort_p_sd                    =   1.3162459356157E-04
(PID.TID 0000.0001) %MON surfExpan_theta_mean         =  -1.5120288041069E-06
(PID.TID 0000.0001) %MON surfExpan_salt_mean          =  -2.0185921296030E-07
(PID.TID 0000.0001) // =======================================================
(PID.TID 0000.0001) // End MONITOR dynamic field statistics
(PID.TID 0000.0001) // =======================================================
 EXTERNAL_FIELDS_LOAD,         7 : iP,iLd,i0,i1=   12    1   12    1 ; Wght=  0.2666666667  0.7333333333
 EXTERNAL_FIELDS_LOAD: (fu0,1),fu,fv= -4.5368E-02 -3.5633E-02 -3.8229E-02 -6.0721E-02
 EXTERNAL_FIELDS_LOAD: SST,SSS,Q,E-P=  4.7561E-01  3.4527E+01  2.6541E+02  1.1213E-05
DEBUG_STATS_RL:          Uvel (THERMODYNAMICS)  min= -8.45480736768029E-02
DEBUG_STATS_RL:          Uvel (THERMODYNAMICS)  max=  1.29728037292294E-01
DEBUG_STATS_RL:          Uvel (THERMODYNAMICS) mean=  2.74105231967227E-03
DEBUG_STATS_RL:          Uvel (THERMODYNAMICS) S.D.=  1.43690495019157E-02
DEBUG_STATS_RL:          Vvel (THERMODYNAMICS)  min= -1.11071563185356E-01
DEBUG_STATS_RL:          Vvel (THERMODYNAMICS)  max=  8.85614698926680E-02
DEBUG_STATS_RL:          Vvel (THERMODYNAMICS) mean= -2.06899624594322E-03
DEBUG_STATS_RL:          Vvel (THERMODYNAMICS) S.D.=  1.50573220985037E-02
DEBUG_STATS_RL:          Wvel (THERMODYNAMICS)  min= -1.82503667301980E-04
DEBUG_STATS_RL:          Wvel (THERMODYNAMICS)  max=  2.31737657623456E-04
DEBUG_STATS_RL:          Wvel (THERMODYNAMICS) mean= -6.57170374633801E-07
DEBUG_STATS_RL:          Wvel (THERMODYNAMICS) S.D.=  2.34129687764238E-05
DEBUG_STATS_RL:         Theta (THERMODYNAMICS)  min= -1.91472878943719E+00
DEBUG_STATS_RL:         Theta (THERMODYNAMICS)  max=  2.98066802231147E+01
DEBUG_STATS_RL:         Theta (THERMODYNAMICS) mean=  5.89930901355194E+00
DEBUG_STATS_RL:         Theta (THERMODYNAMICS) S.D.=  6.86485977301217E+00
DEBUG_STATS_RL:          Salt (THERMODYNAMICS)  min=  2.97534483687260E+01
DEBUG_STATS_RL:          Salt (THERMODYNAMICS)  max=  3.74348508279743E+01
DEBUG_STATS_RL:          Salt (THERMODYNAMICS) mean=  3.47209550629952E+01
DEBUG_STATS_RL:          Salt (THERMODYNAMICS) S.D.=  4.86688109698719E-01
DEBUG_STATS_RL:         GtNm1 (THERMODYNAMICS)  min= -4.05642990766097E-06
DEBUG_STATS_RL:         GtNm1 (THERMODYNAMICS)  max=  2.90269374886742E-06
DEBUG_STATS_RL:         GtNm1 (THERMODYNAMICS) mean=  2.73503898875381E-08
DEBUG_STATS_RL:         GtNm1 (THERMODYNAMICS) S.D.=  2.64767682509369E-07
DEBUG_STATS_RL:         GsNm1 (THERMODYNAMICS)  min= -7.47666088890780E-07
DEBUG_STATS_RL:         GsNm1 (THERMODYNAMICS)  max=  5.29094118609364E-07
DEBUG_STATS_RL:         GsNm1 (THERMODYNAMICS) mean=  3.80578199300868E-10
DEBUG_STATS_RL:         GsNm1 (THERMODYNAMICS) S.D.=  2.18995938890141E-08
DEBUG_STATS_RL:                EtaN (DYNAMICS)  min= -1.45662567149713E+00
DEBUG_STATS_RL:                EtaN (DYNAMICS)  max=  1.07867465412644E+00
DEBUG_STATS_RL:                EtaN (DYNAMICS) mean= -1.56692728052615E-01
DEBUG_STATS_RL:                EtaN (DYNAMICS) S.D.=  6.04958951474194E-01
DEBUG_STATS_RL:                Uvel (DYNAMICS)  min= -8.45480736768029E-02
DEBUG_STATS_RL:                Uvel (DYNAMICS)  max=  1.29728037292294E-01
DEBUG_STATS_RL:                Uvel (DYNAMICS) mean=  2.74105231967227E-03
DEBUG_STATS_RL:                Uvel (DYNAMICS) S.D.=  1.43690495019157E-02
DEBUG_STATS_RL:                Vvel (DYNAMICS)  min= -1.11071563185356E-01
DEBUG_STATS_RL:                Vvel (DYNAMICS)  max=  8.85614698926680E-02
DEBUG_STATS_RL:                Vvel (DYNAMICS) mean= -2.06899624594322E-03
DEBUG_STATS_RL:                Vvel (DYNAMICS) S.D.=  1.50573220985037E-02
DEBUG_STATS_RL:                Wvel (DYNAMICS)  min= -1.82503667301980E-04
DEBUG_STATS_RL:                Wvel (DYNAMICS)  max=  2.31737657623456E-04
DEBUG_STATS_RL:                Wvel (DYNAMICS) mean= -6.57170374633801E-07
DEBUG_STATS_RL:                Wvel (DYNAMICS) S.D.=  2.34129687764238E-05
DEBUG_STATS_RL:               Theta (DYNAMICS)  min= -1.91472878943719E+00
DEBUG_STATS_RL:               Theta (DYNAMICS)  max=  2.98066802231147E+01
DEBUG_STATS_RL:               Theta (DYNAMICS) mean=  5.89930901355194E+00
DEBUG_STATS_RL:               Theta (DYNAMICS) S.D.=  6.86485977301217E+00
DEBUG_STATS_RL:                Salt (DYNAMICS)  min=  2.97534483687260E+01
DEBUG_STATS_RL:                Salt (DYNAMICS)  max=  3.74348508279743E+01
DEBUG_STATS_RL:                Salt (DYNAMICS) mean=  3.47209550629952E+01
DEBUG_STATS_RL:                Salt (DYNAMICS) S.D.=  4.86688109698719E-01
DEBUG_STATS_RL:                  Gu (DYNAMICS)  min= -8.12176250674949E-02
DEBUG_STATS_RL:                  Gu (DYNAMICS)  max=  1.43859048643802E-01
DEBUG_STATS_RL:                  Gu (DYNAMICS) mean=  3.27100403125186E-03
DEBUG_STATS_RL:                  Gu (DYNAMICS) S.D.=  1.65965673892195E-02
DEBUG_STATS_RL:                  Gv (DYNAMICS)  min= -9.44214070720122E-02
DEBUG_STATS_RL:                  Gv (DYNAMICS)  max=  8.93994962085937E-02
DEBUG_STATS_RL:                  Gv (DYNAMICS) mean= -5.66548138211105E-05
DEBUG_STATS_RL:                  Gv (DYNAMICS) S.D.=  1.43496301952729E-02
DEBUG_STATS_RL:               GuNm1 (DYNAMICS)  min= -6.82909135199045E-06
DEBUG_STATS_RL:               GuNm1 (DYNAMICS)  max=  7.49876114377088E-06
DEBUG_STATS_RL:               GuNm1 (DYNAMICS) mean= -2.89701552354066E-08
DEBUG_STATS_RL:               GuNm1 (DYNAMICS) S.D.=  1.21008589097843E-06
DEBUG_STATS_RL:               GvNm1 (DYNAMICS)  min= -1.03139449838617E-05
DEBUG_STATS_RL:               GvNm1 (DYNAMICS)  max=  1.63541169652264E-05
DEBUG_STATS_RL:               GvNm1 (DYNAMICS) mean=  7.76453416442019E-07
DEBUG_STATS_RL:               GvNm1 (DYNAMICS) S.D.=  2.71624578961973E-06
DEBUG_STATS_RL:               GtNm1 (DYNAMICS)  min= -4.05642990766097E-06
DEBUG_STATS_RL:               GtNm1 (DYNAMICS)  max=  2.90269374886742E-06
DEBUG_STATS_RL:               GtNm1 (DYNAMICS) mean=  2.73503898875381E-08
DEBUG_STATS_RL:               GtNm1 (DYNAMICS) S.D.=  2.64767682509369E-07
DEBUG_STATS_RL:               GsNm1 (DYNAMICS)  min= -7.47666088890780E-07
DEBUG_STATS_RL:               GsNm1 (DYNAMICS)  max=  5.29094118609364E-07
DEBUG_STATS_RL:               GsNm1 (DYNAMICS) mean=  3.80578199300868E-10
DEBUG_STATS_RL:               GsNm1 (DYNAMICS) S.D.=  2.18995938890141E-08
DEBUG_STATS_RL:    cg2d_b (SOLVE_FOR_PRESSURE)  min= -2.06911329652461E+04
DEBUG_STATS_RL:    cg2d_b (SOLVE_FOR_PRESSURE)  max=  1.64250113953388E+04
DEBUG_STATS_RL:    cg2d_b (SOLVE_FOR_PRESSURE) mean=  5.18825145572633E-01
DEBUG_STATS_RL:    cg2d_b (SOLVE_FOR_PRESSURE) S.D.=  3.77299606231796E+03
 cg2d: Sum(rhs),rhsMax =   5.80480640677496E-02  1.35904901212877E+00
(PID.TID 0000.0001)  cg2d: iter=     1 ; resid.=  2.45729944762907E-01
(PID.TID 0000.0001)  cg2d: iter=     2 ; resid.=  2.64676678417513E-01
(PID.TID 0000.0001)  cg2d: iter=     3 ; resid.=  3.29496059310449E-01
(PID.TID 0000.0001)  cg2d: iter=     4 ; resid.=  2.64091691741205E-01
(PID.TID 0000.0001)  cg2d: iter=     5 ; resid.=  2.02428062898440E-01
(PID.TID 0000.0001)  cg2d: iter=     6 ; resid.=  1.70152732410727E-01
(PID.TID 0000.0001)  cg2d: iter=     7 ; resid.=  1.23764503642949E-01
(PID.TID 0000.0001)  cg2d: iter=     8 ; resid.=  1.01314864269105E-01
(PID.TID 0000.0001)  cg2d: iter=     9 ; resid.=  9.09096756395775E-02
(PID.TID 0000.0001)  cg2d: iter=    10 ; resid.=  8.12430704246469E-02
(PID.TID 0000.0001)  cg2d: iter=    11 ; resid.=  7.16956866228818E-02
(PID.TID 0000.0001)  cg2d: iter=    12 ; resid.=  5.65455098538791E-02
(PID.TID 0000.0001)  cg2d: iter=    13 ; resid.=  4.07593962747971E-02
(PID.TID 0000.0001)  cg2d: iter=    14 ; resid.=  3.64390627074909E-02
(PID.TID 0000.0001)  cg2d: iter=    15 ; resid.=  3.48377502958054E-02
(PID.TID 0000.0001)  cg2d: iter=    16 ; resid.=  3.16661593470132E-02
(PID.TID 0000.0001)  cg2d: iter=    17 ; resid.=  3.02537373772489E-02
(PID.TID 0000.0001)  cg2d: iter=    18 ; resid.=  2.62772959382365E-02
(PID.TID 0000.0001)  cg2d: iter=    19 ; resid.=  1.89825331810355E-02
(PID.TID 0000.0001)  cg2d: iter=    20 ; resid.=  1.46004233709191E-02
(PID.TID 0000.0001)  cg2d: iter=    21 ; resid.=  1.18915988093746E-02
(PID.TID 0000.0001)  cg2d: iter=    22 ; resid.=  1.08496368921607E-02
(PID.TID 0000.0001)  cg2d: iter=    23 ; resid.=  9.87184341849878E-03
(PID.TID 0000.0001)  cg2d: iter=    24 ; resid.=  8.15668780225821E-03
(PID.TID 0000.0001)  cg2d: iter=    25 ; resid.=  6.41300670250391E-03
(PID.TID 0000.0001)  cg2d: iter=    26 ; resid.=  5.00724983217923E-03
(PID.TID 0000.0001)  cg2d: iter=    27 ; resid.=  4.31695597869426E-03
(PID.TID 0000.0001)  cg2d: iter=    28 ; resid.=  3.72935613948545E-03
(PID.TID 0000.0001)  cg2d: iter=    29 ; resid.=  2.87167299357572E-03
(PID.TID 0000.0001)  cg2d: iter=    30 ; resid.=  2.21986467285808E-03
(PID.TID 0000.0001)  cg2d: iter=    31 ; resid.=  1.82964195143760E-03
(PID.TID 0000.0001)  cg2d: iter=    32 ; resid.=  1.35063275041372E-03
(PID.TID 0000.0001)  cg2d: iter=    33 ; resid.=  1.09247598878166E-03
(PID.TID 0000.0001)  cg2d: iter=    34 ; resid.=  9.20606835000228E-04
(PID.TID 0000.0001)  cg2d: iter=    35 ; resid.=  7.49720233518925E-04
(PID.TID 0000.0001)  cg2d: iter=    36 ; resid.=  6.03531414081416E-04
(PID.TID 0000.0001)  cg2d: iter=    37 ; resid.=  5.31472486718713E-04
(PID.TID 0000.0001)  cg2d: iter=    38 ; resid.=  5.45418040858423E-04
(PID.TID 0000.0001)  cg2d: iter=    39 ; resid.=  4.75980196730936E-04
(PID.TID 0000.0001)  cg2d: iter=    40 ; resid.=  3.77237662637195E-04
(PID.TID 0000.0001)  cg2d: iter=    41 ; resid.=  3.39078362668238E-04
(PID.TID 0000.0001)  cg2d: iter=    42 ; resid.=  3.42420452520517E-04
(PID.TID 0000.0001)  cg2d: iter=    43 ; resid.=  2.92140247235621E-04
(PID.TID 0000.0001)  cg2d: iter=    44 ; resid.=  1.92635940430981E-04
(PID.TID 0000.0001)  cg2d: iter=    45 ; resid.=  1.33654196677747E-04
(PID.TID 0000.0001)  cg2d: iter=    46 ; resid.=  1.10213133380035E-04
(PID.TID 0000.0001)  cg2d: iter=    47 ; resid.=  9.65639421463365E-05
(PID.TID 0000.0001)  cg2d: iter=    48 ; resid.=  8.01832952580931E-05
(PID.TID 0000.0001)  cg2d: iter=    49 ; resid.=  6.24554017010470E-05
(PID.TID 0000.0001)  cg2d: iter=    50 ; resid.=  4.62361257576648E-05
(PID.TID 0000.0001)  cg2d: iter=    51 ; resid.=  3.63042514350838E-05
(PID.TID 0000.0001)  cg2d: iter=    52 ; resid.=  2.83286149143144E-05
(PID.TID 0000.0001)  cg2d: iter=    53 ; resid.=  2.33706889697199E-05
(PID.TID 0000.0001)  cg2d: iter=    54 ; resid.=  1.82287538285932E-05
(PID.TID 0000.0001)  cg2d: iter=    55 ; resid.=  1.40466590267165E-05
(PID.TID 0000.0001)  cg2d: iter=    56 ; resid.=  1.15621560551191E-05
(PID.TID 0000.0001)  cg2d: iter=    57 ; resid.=  9.33056383265710E-06
(PID.TID 0000.0001)  cg2d: iter=    58 ; resid.=  6.79523523864916E-06
(PID.TID 0000.0001)  cg2d: iter=    59 ; resid.=  5.22678029194833E-06
(PID.TID 0000.0001)  cg2d: iter=    60 ; resid.=  4.68198514171069E-06
(PID.TID 0000.0001)  cg2d: iter=    61 ; resid.=  4.26809896938768E-06
(PID.TID 0000.0001)  cg2d: iter=    62 ; resid.=  3.63537153252829E-06
(PID.TID 0000.0001)  cg2d: iter=    63 ; resid.=  3.05238345671648E-06
(PID.TID 0000.0001)  cg2d: iter=    64 ; resid.=  2.73538158206598E-06
(PID.TID 0000.0001)  cg2d: iter=    65 ; resid.=  2.30582152803276E-06
(PID.TID 0000.0001)  cg2d: iter=    66 ; resid.=  1.66527233294465E-06
(PID.TID 0000.0001)  cg2d: iter=    67 ; resid.=  1.25170136865349E-06
(PID.TID 0000.0001)  cg2d: iter=    68 ; resid.=  1.03391063846384E-06
(PID.TID 0000.0001)  cg2d: iter=    69 ; resid.=  8.16930602117231E-07
(PID.TID 0000.0001)  cg2d: iter=    70 ; resid.=  6.27451685739456E-07
(PID.TID 0000.0001)  cg2d: iter=    71 ; resid.=  4.72798238279500E-07
(PID.TID 0000.0001)  cg2d: iter=    72 ; resid.=  3.28609983426848E-07
(PID.TID 0000.0001)  cg2d: iter=    73 ; resid.=  2.58894936450929E-07
(PID.TID 0000.0001)  cg2d: iter=    74 ; resid.=  2.21731318159012E-07
(PID.TID 0000.0001)  cg2d: iter=    75 ; resid.=  1.64402572169745E-07
(PID.TID 0000.0001)  cg2d: iter=    76 ; resid.=  1.24144689764407E-07
(PID.TID 0000.0001)  cg2d: iter=    77 ; resid.=  1.07040386767505E-07
(PID.TID 0000.0001)  cg2d: iter=    78 ; resid.=  9.56948811942284E-08
(PID.TID 0000.0001)  cg2d: iter=    79 ; resid.=  8.89465661340516E-08
(PID.TID 0000.0001)  cg2d: iter=    80 ; resid.=  7.82733610233087E-08
(PID.TID 0000.0001)  cg2d: iter=    81 ; resid.=  6.13964340965347E-08
(PID.TID 0000.0001)  cg2d: iter=    82 ; resid.=  4.86845303312884E-08
(PID.TID 0000.0001)  cg2d: iter=    83 ; resid.=  4.03851983400410E-08
(PID.TID 0000.0001)  cg2d: iter=    84 ; resid.=  3.62638295409345E-08
(PID.TID 0000.0001)  cg2d: iter=    85 ; resid.=  3.06088767649300E-08
(PID.TID 0000.0001)  cg2d: iter=    86 ; resid.=  2.44312909550189E-08
(PID.TID 0000.0001)  cg2d: iter=    87 ; resid.=  1.90955549239826E-08
(PID.TID 0000.0001)  cg2d: iter=    88 ; resid.=  1.64416996320139E-08
(PID.TID 0000.0001)  cg2d: iter=    89 ; resid.=  1.53986285987485E-08
(PID.TID 0000.0001)  cg2d: iter=    90 ; resid.=  1.20400590385943E-08
(PID.TID 0000.0001)  cg2d: iter=    91 ; resid.=  8.37661835564898E-09
(PID.TID 0000.0001)  cg2d: iter=    92 ; resid.=  6.08224106073613E-09
(PID.TID 0000.0001)  cg2d: iter=    93 ; resid.=  4.52732001227246E-09
(PID.TID 0000.0001)  cg2d: iter=    94 ; resid.=  3.49940668379486E-09
(PID.TID 0000.0001)  cg2d: iter=    95 ; resid.=  2.61264991628420E-09
(PID.TID 0000.0001)  cg2d: iter=    96 ; resid.=  1.92239721127527E-09
(PID.TID 0000.0001)  cg2d: iter=    97 ; resid.=  1.37423396333372E-09
(PID.TID 0000.0001)  cg2d: iter=    98 ; resid.=  9.66615346692890E-10
(PID.TID 0000.0001)  cg2d: iter=    99 ; resid.=  7.83575413811489E-10
(PID.TID 0000.0001)  cg2d: iter=   100 ; resid.=  6.26154157912554E-10
(PID.TID 0000.0001)  cg2d: iter=   101 ; resid.=  5.43088441048219E-10
(PID.TID 0000.0001)  cg2d: iter=   102 ; resid.=  4.37691227655850E-10
(PID.TID 0000.0001)  cg2d: iter=   103 ; resid.=  3.25345950086056E-10
(PID.TID 0000.0001)  cg2d: iter=   104 ; resid.=  2.38671198709647E-10
(PID.TID 0000.0001)  cg2d: iter=   105 ; resid.=  1.86705983440043E-10
(PID.TID 0000.0001)  cg2d: iter=   106 ; resid.=  1.57143719422568E-10
(PID.TID 0000.0001)  cg2d: iter=   107 ; resid.=  1.34109169561739E-10
(PID.TID 0000.0001)  cg2d: iter=   108 ; resid.=  1.04420453541026E-10
(PID.TID 0000.0001)  cg2d: iter=   109 ; resid.=  7.73857999448626E-11
(PID.TID 0000.0001)  cg2d: iter=   110 ; resid.=  6.15589600812902E-11
(PID.TID 0000.0001)  cg2d: iter=   111 ; resid.=  5.08143789186751E-11
(PID.TID 0000.0001)  cg2d: iter=   112 ; resid.=  4.23570824780272E-11
(PID.TID 0000.0001)  cg2d: iter=   113 ; resid.=  3.48281986312515E-11
(PID.TID 0000.0001)  cg2d: iter=   114 ; resid.=  2.82203401763705E-11
(PID.TID 0000.0001)  cg2d: iter=   115 ; resid.=  2.33781933600080E-11
(PID.TID 0000.0001)  cg2d: iter=   116 ; resid.=  2.08710603595211E-11
(PID.TID 0000.0001)  cg2d: iter=   117 ; resid.=  1.71937086397309E-11
(PID.TID 0000.0001)  cg2d: iter=   118 ; resid.=  1.27931183764626E-11
(PID.TID 0000.0001)  cg2d: iter=   119 ; resid.=  1.01661225104264E-11
(PID.TID 0000.0001)  cg2d: iter=   120 ; resid.=  8.45107308228059E-12
(PID.TID 0000.0001)  cg2d: iter=   121 ; resid.=  6.62772269052327E-12
(PID.TID 0000.0001)  cg2d: iter=   122 ; resid.=  4.89514976982399E-12
(PID.TID 0000.0001)  cg2d: iter=   123 ; resid.=  3.73806146649594E-12
(PID.TID 0000.0001)  cg2d: iter=   124 ; resid.=  2.80063160197402E-12
(PID.TID 0000.0001)  cg2d: iter=   125 ; resid.=  2.14519522686255E-12
(PID.TID 0000.0001)  cg2d: iter=   126 ; resid.=  1.65162397960303E-12
(PID.TID 0000.0001)  cg2d: iter=   127 ; resid.=  1.30325913615087E-12
(PID.TID 0000.0001)  cg2d: iter=   128 ; resid.=  1.08736307084238E-12
(PID.TID 0000.0001)  cg2d: iter=   129 ; resid.=  8.78014465467667E-13
(PID.TID 0000.0001)  cg2d: iter=   130 ; resid.=  6.94341905943054E-13
(PID.TID 0000.0001)  cg2d: iter=   131 ; resid.=  5.06344068732681E-13
(PID.TID 0000.0001)  cg2d: iter=   132 ; resid.=  3.73402045951521E-13
(PID.TID 0000.0001)  cg2d: iter=   133 ; resid.=  2.95672549391690E-13
(PID.TID 0000.0001)  cg2d: iter=   134 ; resid.=  2.28763755877622E-13
(PID.TID 0000.0001)  cg2d: iter=   135 ; resid.=  1.82512002793601E-13
(PID.TID 0000.0001)  cg2d: iter=   136 ; resid.=  1.36654561332937E-13
(PID.TID 0000.0001)  cg2d: iter=   137 ; resid.=  9.26705121698606E-14
DEBUG_STATS_RL:    cg2d_x (SOLVE_FOR_PRESSURE)  min= -1.39920957495374E+01
DEBUG_STATS_RL:    cg2d_x (SOLVE_FOR_PRESSURE)  max=  1.03469373937193E+01
DEBUG_STATS_RL:    cg2d_x (SOLVE_FOR_PRESSURE) mean= -1.51355988231639E+00
DEBUG_STATS_RL:    cg2d_x (SOLVE_FOR_PRESSURE) S.D.=  5.84558077116435E+00
(PID.TID 0000.0001)      cg2d_init_res =   8.66073030472246E-01
(PID.TID 0000.0001)      cg2d_iters(min,last) =      -1     137
(PID.TID 0000.0001)      cg2d_last_res =   9.26705121698606E-14
(PID.TID 0000.0001) // =======================================================
(PID.TID 0000.0001) // Begin MONITOR dynamic field statistics
(PID.TID 0000.0001) // =======================================================
(PID.TID 0000.0001) %MON time_tsnumber                =                     8
(PID.TID 0000.0001) %MON time_secondsf                =   6.9120000000000E+05
(PID.TID 0000.0001) %MON dynstat_eta_max              =   1.0547336792782E+00
(PID.TID 0000.0001) %MON dynstat_eta_min              =  -1.4263094545910E+00
(PID.TID 0000.0001) %MON dynstat_eta_mean             =  -5.4132970721104E-04
(PID.TID 0000.0001) %MON dynstat_eta_sd               =   5.2413990096568E-01
(PID.TID 0000.0001) %MON dynstat_eta_del2             =   1.9821559584601E-03
(PID.TID 0000.0001) %MON dynstat_uvel_max             =   1.4647358877655E-01
(PID.TID 0000.0001) %MON dynstat_uvel_min             =  -8.7652060092706E-02
(PID.TID 0000.0001) %MON dynstat_uvel_mean            =  -4.2934901838374E-05
(PID.TID 0000.0001) %MON dynstat_uvel_sd              =   9.8285540064682E-03
(PID.TID 0000.0001) %MON dynstat_uvel_del2            =   8.1116889859455E-05
(PID.TID 0000.0001) %MON dynstat_vvel_max             =   9.1939169141173E-02
(PID.TID 0000.0001) %MON dynstat_vvel_min             =  -1.1470621309307E-01
(PID.TID 0000.0001) %MON dynstat_vvel_mean            =  -2.9311481737217E-04
(PID.TID 0000.0001) %MON dynstat_vvel_sd              =   1.0283986900436E-02
(PID.TID 0000.0001) %MON dynstat_vvel_del2            =   1.0597157670046E-04
(PID.TID 0000.0001) %MON dynstat_wvel_max             =   2.3439962266001E-04
(PID.TID 0000.0001) %MON dynstat_wvel_min             =  -1.9229101492047E-04
(PID.TID 0000.0001) %MON dynstat_wvel_mean            =   2.1096521533427E-22
(PID.TID 0000.0001) %MON dynstat_wvel_sd              =   2.4805082211715E-05
(PID.TID 0000.0001) %MON dynstat_wvel_del2            =   3.0794423105510E-07
(PID.TID 0000.0001) %MON dynstat_theta_max            =   2.9806680223115E+01
(PID.TID 0000.0001) %MON dynstat_theta_min            =  -1.9147287894372E+00
(PID.TID 0000.0001) %MON dynstat_theta_mean           =   3.6193313016491E+00
(PID.TID 0000.0001) %MON dynstat_theta_sd             =   4.4148372362988E+00
(PID.TID 0000.0001) %MON dynstat_theta_del2           =   5.1866656441836E-03
(PID.TID 0000.0001) %MON dynstat_salt_max             =   3.7434850827974E+01
(PID.TID 0000.0001) %MON dynstat_salt_min             =   2.9753448368726E+01
(PID.TID 0000.0001) %MON dynstat_salt_mean            =   3.4717963281973E+01
(PID.TID 0000.0001) %MON dynstat_salt_sd              =   2.9612416692182E-01
(PID.TID 0000.0001) %MON dynstat_salt_del2            =   1.0106884111008E-03
(PID.TID 0000.0001) %MON dynstat_sst_max              =   2.9806680223115E+01
(PID.TID 0000.0001) %MON dynstat_sst_min              =  -1.9147287894372E+00
(PID.TID 0000.0001) %MON dynstat_sst_mean             =   1.8576436454513E+01
(PID.TID 0000.0001) %MON dynstat_sst_sd               =   9.0973586826215E+00
(PID.TID 0000.0001) %MON dynstat_sst_del2             =   2.6239287939931E-02
(PID.TID 0000.0001) %MON dynstat_sss_max              =   3.7432461288376E+01
(PID.TID 0000.0001) %MON dynstat_sss_min              =   2.9753448368726E+01
(PID.TID 0000.0001) %MON dynstat_sss_mean             =   3.4852989045476E+01
(PID.TID 0000.0001) %MON dynstat_sss_sd               =   9.6658567213015E-01
(PID.TID 0000.0001) %MON dynstat_sss_del2             =   8.0053260917501E-03
(PID.TID 0000.0001) %MON forcing_qnet_max             =   4.3322811889648E+02
(PID.TID 0000.0001) %MON forcing_qnet_min             =  -1.8375684712728E+02
(PID.TID 0000.0001) %MON forcing_qnet_mean            =  -1.6612621647629E+01
(PID.TID 0000.0001) %MON forcing_qnet_sd              =   1.1139030190430E+02
(PID.TID 0000.0001) %MON forcing_qnet_del2            =   1.0017615545299E+00
(PID.TID 0000.0001) %MON forcing_qsw_max              =   0.0000000000000E+00
(PID.TID 0000.0001) %MON forcing_qsw_min              =   0.0000000000000E+00
(PID.TID 0000.0001) %MON forcing_qsw_mean             =   0.0000000000000E+00
(PID.TID 0000.0001) %MON forcing_qsw_sd               =   0.0000000000000E+00
(PID.TID 0000.0001) %MON forcing_qsw_del2             =   0.0000000000000E+00
(PID.TID 0000.0001) %MON forcing_empmr_max            =   8.1889273909989E-05
(PID.TID 0000.0001) %MON forcing_empmr_min            =  -7.2333472189712E-05
(PID.TID 0000.0001) %MON forcing_empmr_mean           =   8.4477900014659E-07
(PID.TID 0000.0001) %MON forcing_empmr_sd             =   2.8146998273902E-05
(PID.TID 0000.0001) %MON forcing_empmr_del2           =   3.6268469487418E-07
(PID.TID 0000.0001) %MON forcing_fu_max               =   2.6985520720482E-01
(PID.TID 0000.0001) %MON forcing_fu_min               =  -1.6437321007252E-01
(PID.TID 0000.0001) %MON forcing_fu_mean              =   1.6063277720863E-02
(PID.TID 0000.0001) %MON forcing_fu_sd                =   9.0275341241088E-02
(PID.TID 0000.0001) %MON forcing_fu_del2              =   6.7327842425542E-04
(PID.TID 0000.0001) %MON forcing_fv_max               =   2.1808207929134E-01
(PID.TID 0000.0001) %MON forcing_fv_min               =  -1.8281415998936E-01
(PID.TID 0000.0001) %MON forcing_fv_mean              =  -5.8489979543916E-03
(PID.TID 0000.0001) %MON forcing_fv_sd                =   4.6198708258185E-02
(PID.TID 0000.0001) %MON forcing_fv_del2              =   4.5690396795039E-04
(PID.TID 0000.0001) %MON trAdv_CFL_u_max              =   4.0161817884038E-02
(PID.TID 0000.0001) %MON trAdv_CFL_v_max              =   2.0892416086048E-02
(PID.TID 0000.0001) %MON trAdv_CFL_w_max              =   7.0637838906258E-02
(PID.TID 0000.0001) %MON advcfl_uvel_max              =   4.4528427856813E-02
(PID.TID 0000.0001) %MON advcfl_vvel_max              =   2.2285577537501E-02
(PID.TID 0000.0001) %MON advcfl_wvel_max              =   8.0508009601448E-02
(PID.TID 0000.0001) %MON advcfl_W_hf_max              =   9.1101168759534E-02
(PID.TID 0000.0001) %MON pe_b_mean                    =   3.5154110056026E-04
(PID.TID 0000.0001) %MON ke_max                       =   1.1304215663212E-02
(PID.TID 0000.0001) %MON ke_mean                      =   9.1406940321601E-05
(PID.TID 0000.0001) %MON ke_vol                       =   1.3226782436723E+18
(PID.TID 0000.0001) %MON vort_r_min                   =  -2.9520706380736E-07
(PID.TID 0000.0001) %MON vort_r_max                   =   2.4539707502981E-07
(PID.TID 0000.0001) %MON vort_a_mean                  =  -2.5274807051184E-05
(PID.TID 0000.0001) %MON vort_a_sd                    =   7.3604336674114E-05
(PID.TID 0000.0001) %MON vort_p_mean                  =  -3.1845655363184E-05
(PID.TID 0000.0001) %MON vort_p_sd                    =   1.3162445087283E-04
(PID.TID 0000.0001) %MON surfExpan_theta_mean         =  -6.6391499398785E-07
(PID.TID 0000.0001) %MON surfExpan_salt_mean          =  -1.3735954126225E-07
(PID.TID 0000.0001) // =======================================================
(PID.TID 0000.0001) // End MONITOR dynamic field statistics
(PID.TID 0000.0001) // =======================================================
 EXTERNAL_FIELDS_LOAD,         8 : iP,iLd,i0,i1=   12    1   12    1 ; Wght=  0.2333333333  0.7666666667
 EXTERNAL_FIELDS_LOAD: (fu0,1),fu,fv= -4.5368E-02 -3.5633E-02 -3.7904E-02 -6.0288E-02
 EXTERNAL_FIELDS_LOAD: SST,SSS,Q,E-P=  5.3596E-01  3.4551E+01  2.6546E+02  1.1266E-05
DEBUG_STATS_RL:          Uvel (THERMODYNAMICS)  min= -8.76520600927056E-02
DEBUG_STATS_RL:          Uvel (THERMODYNAMICS)  max=  1.46473588776551E-01
DEBUG_STATS_RL:          Uvel (THERMODYNAMICS) mean=  3.56857915541458E-03
DEBUG_STATS_RL:          Uvel (THERMODYNAMICS) S.D.=  1.65920715394500E-02
DEBUG_STATS_RL:          Vvel (THERMODYNAMICS)  min= -1.14706213093069E-01
DEBUG_STATS_RL:          Vvel (THERMODYNAMICS)  max=  9.19391691411731E-02
DEBUG_STATS_RL:          Vvel (THERMODYNAMICS) mean= -2.07669996806064E-03
DEBUG_STATS_RL:          Vvel (THERMODYNAMICS) S.D.=  1.54754153355727E-02
DEBUG_STATS_RL:          Wvel (THERMODYNAMICS)  min= -1.92291014920475E-04
DEBUG_STATS_RL:          Wvel (THERMODYNAMICS)  max=  2.34399622660007E-04
DEBUG_STATS_RL:          Wvel (THERMODYNAMICS) mean= -6.61764991867401E-07
DEBUG_STATS_RL:          Wvel (THERMODYNAMICS) S.D.=  2.31404540058000E-05
DEBUG_STATS_RL:         Theta (THERMODYNAMICS)  min= -1.91451573882004E+00
DEBUG_STATS_RL:         Theta (THERMODYNAMICS)  max=  2.98140228340093E+01
DEBUG_STATS_RL:         Theta (THERMODYNAMICS) mean=  5.90143647583274E+00
DEBUG_STATS_RL:         Theta (THERMODYNAMICS) S.D.=  6.86551119067877E+00
DEBUG_STATS_RL:          Salt (THERMODYNAMICS)  min=  2.97524755087479E+01
DEBUG_STATS_RL:          Salt (THERMODYNAMICS)  max=  3.74356559264426E+01
DEBUG_STATS_RL:          Salt (THERMODYNAMICS) mean=  3.47209872061955E+01
DEBUG_STATS_RL:          Salt (THERMODYNAMICS) S.D.=  4.86789691860767E-01
DEBUG_STATS_RL:         GtNm1 (THERMODYNAMICS)  min= -3.71997475693341E-06
DEBUG_STATS_RL:         GtNm1 (THERMODYNAMICS)  max=  2.85310384764854E-06
DEBUG_STATS_RL:         GtNm1 (THERMODYNAMICS) mean=  2.65233768233295E-08
DEBUG_STATS_RL:         GtNm1 (THERMODYNAMICS) S.D.=  2.67362620211879E-07
DEBUG_STATS_RL:         GsNm1 (THERMODYNAMICS)  min= -4.87040595643880E-07
DEBUG_STATS_RL:         GsNm1 (THERMODYNAMICS)  max=  4.52538265661875E-07
DEBUG_STATS_RL:         GsNm1 (THERMODYNAMICS) mean=  3.63307590874141E-10
DEBUG_STATS_RL:         GsNm1 (THERMODYNAMICS) S.D.=  2.18027640612730E-08
DEBUG_STATS_RL:                EtaN (DYNAMICS)  min= -1.42630945459096E+00
DEBUG_STATS_RL:                EtaN (DYNAMICS)  max=  1.05473367927822E+00
DEBUG_STATS_RL:                EtaN (DYNAMICS) mean= -1.54287449777411E-01
DEBUG_STATS_RL:                EtaN (DYNAMICS) S.D.=  5.95879793186988E-01
DEBUG_STATS_RL:                Uvel (DYNAMICS)  min= -8.76520600927056E-02
DEBUG_STATS_RL:                Uvel (DYNAMICS)  max=  1.46473588776551E-01
DEBUG_STATS_RL:                Uvel (DYNAMICS) mean=  3.56857915541458E-03
DEBUG_STATS_RL:                Uvel (DYNAMICS) S.D.=  1.65920715394500E-02
DEBUG_STATS_RL:                Vvel (DYNAMICS)  min= -1.14706213093069E-01
DEBUG_STATS_RL:                Vvel (DYNAMICS)  max=  9.19391691411731E-02
DEBUG_STATS_RL:                Vvel (DYNAMICS) mean= -2.07669996806064E-03
DEBUG_STATS_RL:                Vvel (DYNAMICS) S.D.=  1.54754153355727E-02
DEBUG_STATS_RL:                Wvel (DYNAMICS)  min= -1.92291014920475E-04
DEBUG_STATS_RL:                Wvel (DYNAMICS)  max=  2.34399622660007E-04
DEBUG_STATS_RL:                Wvel (DYNAMICS) mean= -6.61764991867401E-07
DEBUG_STATS_RL:                Wvel (DYNAMICS) S.D.=  2.31404540058000E-05
DEBUG_STATS_RL:               Theta (DYNAMICS)  min= -1.91451573882004E+00
DEBUG_STATS_RL:               Theta (DYNAMICS)  max=  2.98140228340093E+01
DEBUG_STATS_RL:               Theta (DYNAMICS) mean=  5.90143647583274E+00
DEBUG_STATS_RL:               Theta (DYNAMICS) S.D.=  6.86551119067877E+00
DEBUG_STATS_RL:                Salt (DYNAMICS)  min=  2.97524755087479E+01
DEBUG_STATS_RL:                Salt (DYNAMICS)  max=  3.74356559264426E+01
DEBUG_STATS_RL:                Salt (DYNAMICS) mean=  3.47209872061955E+01
DEBUG_STATS_RL:                Salt (DYNAMICS) S.D.=  4.86789691860767E-01
DEBUG_STATS_RL:                  Gu (DYNAMICS)  min= -8.33735513377947E-02
DEBUG_STATS_RL:                  Gu (DYNAMICS)  max=  1.58458719128746E-01
DEBUG_STATS_RL:                  Gu (DYNAMICS) mean=  4.08476635791660E-03
DEBUG_STATS_RL:                  Gu (DYNAMICS) S.D.=  1.87381504636638E-02
DEBUG_STATS_RL:                  Gv (DYNAMICS)  min= -9.70699902997807E-02
DEBUG_STATS_RL:                  Gv (DYNAMICS)  max=  9.56063480413048E-02
DEBUG_STATS_RL:                  Gv (DYNAMICS) mean=  3.54929472369221E-05
DEBUG_STATS_RL:                  Gv (DYNAMICS) S.D.=  1.45249040555658E-02
DEBUG_STATS_RL:               GuNm1 (DYNAMICS)  min= -6.67066142290948E-06
DEBUG_STATS_RL:               GuNm1 (DYNAMICS)  max=  7.28106388399642E-06
DEBUG_STATS_RL:               GuNm1 (DYNAMICS) mean= -2.78409768193148E-08
DEBUG_STATS_RL:               GuNm1 (DYNAMICS) S.D.=  1.17832495004051E-06
DEBUG_STATS_RL:               GvNm1 (DYNAMICS)  min= -9.94400702880727E-06
DEBUG_STATS_RL:               GvNm1 (DYNAMICS)  max=  1.64116783744999E-05
DEBUG_STATS_RL:               GvNm1 (DYNAMICS) mean=  7.75839473629787E-07
DEBUG_STATS_RL:               GvNm1 (DYNAMICS) S.D.=  2.68483972165779E-06
DEBUG_STATS_RL:               GtNm1 (DYNAMICS)  min= -3.71997475693341E-06
DEBUG_STATS_RL:               GtNm1 (DYNAMICS)  max=  2.85310384764854E-06
DEBUG_STATS_RL:               GtNm1 (DYNAMICS) mean=  2.65233768233295E-08
DEBUG_STATS_RL:               GtNm1 (DYNAMICS) S.D.=  2.67362620211879E-07
DEBUG_STATS_RL:               GsNm1 (DYNAMICS)  min= -4.87040595643880E-07
DEBUG_STATS_RL:               GsNm1 (DYNAMICS)  max=  4.52538265661875E-07
DEBUG_STATS_RL:               GsNm1 (DYNAMICS) mean=  3.63307590874141E-10
DEBUG_STATS_RL:               GsNm1 (DYNAMICS) S.D.=  2.18027640612730E-08
DEBUG_STATS_RL:    cg2d_b (SOLVE_FOR_PRESSURE)  min= -1.80704586615870E+04
DEBUG_STATS_RL:    cg2d_b (SOLVE_FOR_PRESSURE)  max=  1.56268995907620E+04
DEBUG_STATS_RL:    cg2d_b (SOLVE_FOR_PRESSURE) mean=  5.87195746255193E-01
DEBUG_STATS_RL:    cg2d_b (SOLVE_FOR_PRESSURE) S.D.=  3.58110606507069E+03
 cg2d: Sum(rhs),rhsMax =   7.52254371644994E-02  1.18691610720367E+00
(PID.TID 0000.0001)  cg2d: iter=     1 ; resid.=  2.69279259067271E-01
(PID.TID 0000.0001)  cg2d: iter=     2 ; resid.=  2.98201664731121E-01
(PID.TID 0000.0001)  cg2d: iter=     3 ; resid.=  3.90531961717488E-01
(PID.TID 0000.0001)  cg2d: iter=     4 ; resid.=  2.97776448381735E-01
(PID.TID 0000.0001)  cg2d: iter=     5 ; resid.=  2.31099182384944E-01
(PID.TID 0000.0001)  cg2d: iter=     6 ; resid.=  1.99608453619380E-01
(PID.TID 0000.0001)  cg2d: iter=     7 ; resid.=  1.49317554705882E-01
(PID.TID 0000.0001)  cg2d: iter=     8 ; resid.=  1.10307164761479E-01
(PID.TID 0000.0001)  cg2d: iter=     9 ; resid.=  8.63405782071716E-02
(PID.TID 0000.0001)  cg2d: iter=    10 ; resid.=  7.55177052877873E-02
(PID.TID 0000.0001)  cg2d: iter=    11 ; resid.=  7.65688951001814E-02
(PID.TID 0000.0001)  cg2d: iter=    12 ; resid.=  6.62976610302938E-02
(PID.TID 0000.0001)  cg2d: iter=    13 ; resid.=  4.89629574627814E-02
(PID.TID 0000.0001)  cg2d: iter=    14 ; resid.=  4.18630289800401E-02
(PID.TID 0000.0001)  cg2d: iter=    15 ; resid.=  4.06762972973765E-02
(PID.TID 0000.0001)  cg2d: iter=    16 ; resid.=  3.68182101579681E-02
(PID.TID 0000.0001)  cg2d: iter=    17 ; resid.=  3.36201406174413E-02
(PID.TID 0000.0001)  cg2d: iter=    18 ; resid.=  2.76546573628325E-02
(PID.TID 0000.0001)  cg2d: iter=    19 ; resid.=  2.11444743308554E-02
(PID.TID 0000.0001)  cg2d: iter=    20 ; resid.=  1.62950129317956E-02
(PID.TID 0000.0001)  cg2d: iter=    21 ; resid.=  1.19484362474934E-02
(PID.TID 0000.0001)  cg2d: iter=    22 ; resid.=  1.05216148986874E-02
(PID.TID 0000.0001)  cg2d: iter=    23 ; resid.=  1.05911806071531E-02
(PID.TID 0000.0001)  cg2d: iter=    24 ; resid.=  9.27810214065901E-03
(PID.TID 0000.0001)  cg2d: iter=    25 ; resid.=  7.36323235068317E-03
(PID.TID 0000.0001)  cg2d: iter=    26 ; resid.=  5.62690173468348E-03
(PID.TID 0000.0001)  cg2d: iter=    27 ; resid.=  5.06939650625657E-03
(PID.TID 0000.0001)  cg2d: iter=    28 ; resid.=  4.58413939450834E-03
(PID.TID 0000.0001)  cg2d: iter=    29 ; resid.=  3.35226132414009E-03
(PID.TID 0000.0001)  cg2d: iter=    30 ; resid.=  2.25209829435012E-03
(PID.TID 0000.0001)  cg2d: iter=    31 ; resid.=  1.80780930974864E-03
(PID.TID 0000.0001)  cg2d: iter=    32 ; resid.=  1.44695386596644E-03
(PID.TID 0000.0001)  cg2d: iter=    33 ; resid.=  1.15110443367111E-03
(PID.TID 0000.0001)  cg2d: iter=    34 ; resid.=  9.21188068153736E-04
(PID.TID 0000.0001)  cg2d: iter=    35 ; resid.=  8.02307960713991E-04
(PID.TID 0000.0001)  cg2d: iter=    36 ; resid.=  7.82211101401959E-04
(PID.TID 0000.0001)  cg2d: iter=    37 ; resid.=  7.07978493643317E-04
(PID.TID 0000.0001)  cg2d: iter=    38 ; resid.=  6.15178571496862E-04
(PID.TID 0000.0001)  cg2d: iter=    39 ; resid.=  5.02024779346060E-04
(PID.TID 0000.0001)  cg2d: iter=    40 ; resid.=  4.30112058816147E-04
(PID.TID 0000.0001)  cg2d: iter=    41 ; resid.=  4.06561574785265E-04
(PID.TID 0000.0001)  cg2d: iter=    42 ; resid.=  3.80520209210793E-04
(PID.TID 0000.0001)  cg2d: iter=    43 ; resid.=  3.02461577865553E-04
(PID.TID 0000.0001)  cg2d: iter=    44 ; resid.=  2.02346731290019E-04
(PID.TID 0000.0001)  cg2d: iter=    45 ; resid.=  1.47750295160812E-04
(PID.TID 0000.0001)  cg2d: iter=    46 ; resid.=  1.25822496727957E-04
(PID.TID 0000.0001)  cg2d: iter=    47 ; resid.=  1.06726641087477E-04
(PID.TID 0000.0001)  cg2d: iter=    48 ; resid.=  8.59218819538060E-05
(PID.TID 0000.0001)  cg2d: iter=    49 ; resid.=  6.49237344457184E-05
(PID.TID 0000.0001)  cg2d: iter=    50 ; resid.=  4.93918994062191E-05
(PID.TID 0000.0001)  cg2d: iter=    51 ; resid.=  3.93538293916131E-05
(PID.TID 0000.0001)  cg2d: iter=    52 ; resid.=  3.07157098533917E-05
(PID.TID 0000.0001)  cg2d: iter=    53 ; resid.=  2.40964174501271E-05
(PID.TID 0000.0001)  cg2d: iter=    54 ; resid.=  1.82509624405757E-05
(PID.TID 0000.0001)  cg2d: iter=    55 ; resid.=  1.45405321183038E-05
(PID.TID 0000.0001)  cg2d: iter=    56 ; resid.=  1.30050240426552E-05
(PID.TID 0000.0001)  cg2d: iter=    57 ; resid.=  1.09418730139612E-05
(PID.TID 0000.0001)  cg2d: iter=    58 ; resid.=  8.22885285180703E-06
(PID.TID 0000.0001)  cg2d: iter=    59 ; resid.=  6.08593834392444E-06
(PID.TID 0000.0001)  cg2d: iter=    60 ; resid.=  5.11998150841236E-06
(PID.TID 0000.0001)  cg2d: iter=    61 ; resid.=  4.75236851344311E-06
(PID.TID 0000.0001)  cg2d: iter=    62 ; resid.=  4.31745990456086E-06
(PID.TID 0000.0001)  cg2d: iter=    63 ; resid.=  3.60382393817682E-06
(PID.TID 0000.0001)  cg2d: iter=    64 ; resid.=  3.16785600207074E-06
(PID.TID 0000.0001)  cg2d: iter=    65 ; resid.=  2.59757129927339E-06
(PID.TID 0000.0001)  cg2d: iter=    66 ; resid.=  1.80671007428733E-06
(PID.TID 0000.0001)  cg2d: iter=    67 ; resid.=  1.26827962381351E-06
(PID.TID 0000.0001)  cg2d: iter=    68 ; resid.=  1.02985727989031E-06
(PID.TID 0000.0001)  cg2d: iter=    69 ; resid.=  8.14184890309806E-07
(PID.TID 0000.0001)  cg2d: iter=    70 ; resid.=  6.42326701469588E-07
(PID.TID 0000.0001)  cg2d: iter=    71 ; resid.=  4.96080919692568E-07
(PID.TID 0000.0001)  cg2d: iter=    72 ; resid.=  3.69647257887997E-07
(PID.TID 0000.0001)  cg2d: iter=    73 ; resid.=  3.25777536849412E-07
(PID.TID 0000.0001)  cg2d: iter=    74 ; resid.=  3.22043505533108E-07
(PID.TID 0000.0001)  cg2d: iter=    75 ; resid.=  2.47343441344955E-07
(PID.TID 0000.0001)  cg2d: iter=    76 ; resid.=  1.84743370401636E-07
(PID.TID 0000.0001)  cg2d: iter=    77 ; resid.=  1.56603452835268E-07
(PID.TID 0000.0001)  cg2d: iter=    78 ; resid.=  1.40402771134585E-07
(PID.TID 0000.0001)  cg2d: iter=    79 ; resid.=  1.20942581327206E-07
(PID.TID 0000.0001)  cg2d: iter=    80 ; resid.=  9.85300075432600E-08
(PID.TID 0000.0001)  cg2d: iter=    81 ; resid.=  7.89249239895214E-08
(PID.TID 0000.0001)  cg2d: iter=    82 ; resid.=  6.78001221812168E-08
(PID.TID 0000.0001)  cg2d: iter=    83 ; resid.=  6.02310619691840E-08
(PID.TID 0000.0001)  cg2d: iter=    84 ; resid.=  5.15926536046551E-08
(PID.TID 0000.0001)  cg2d: iter=    85 ; resid.=  4.05888988516613E-08
(PID.TID 0000.0001)  cg2d: iter=    86 ; resid.=  3.09432578157981E-08
(PID.TID 0000.0001)  cg2d: iter=    87 ; resid.=  2.43615775591679E-08
(PID.TID 0000.0001)  cg2d: iter=    88 ; resid.=  2.02628564992645E-08
(PID.TID 0000.0001)  cg2d: iter=    89 ; resid.=  1.78260958313737E-08
(PID.TID 0000.0001)  cg2d: iter=    90 ; resid.=  1.35160707823032E-08
(PID.TID 0000.0001)  cg2d: iter=    91 ; resid.=  9.11303911114836E-09
(PID.TID 0000.0001)  cg2d: iter=    92 ; resid.=  6.50114606796630E-09
(PID.TID 0000.0001)  cg2d: iter=    93 ; resid.=  4.94210284892072E-09
(PID.TID 0000.0001)  cg2d: iter=    94 ; resid.=  3.62559669521570E-09
(PID.TID 0000.0001)  cg2d: iter=    95 ; resid.=  2.50041208319731E-09
(PID.TID 0000.0001)  cg2d: iter=    96 ; resid.=  1.81556270041410E-09
(PID.TID 0000.0001)  cg2d: iter=    97 ; resid.=  1.47688593275744E-09
(PID.TID 0000.0001)  cg2d: iter=    98 ; resid.=  1.24095792767271E-09
(PID.TID 0000.0001)  cg2d: iter=    99 ; resid.=  1.11371557251617E-09
(PID.TID 0000.0001)  cg2d: iter=   100 ; resid.=  8.71797188585662E-10
(PID.TID 0000.0001)  cg2d: iter=   101 ; resid.=  7.13036092215276E-10
(PID.TID 0000.0001)  cg2d: iter=   102 ; resid.=  5.94990199559852E-10
(PID.TID 0000.0001)  cg2d: iter=   103 ; resid.=  4.81092355870654E-10
(PID.TID 0000.0001)  cg2d: iter=   104 ; resid.=  3.89861927626740E-10
(PID.TID 0000.0001)  cg2d: iter=   105 ; resid.=  3.27991669734222E-10
(PID.TID 0000.0001)  cg2d: iter=   106 ; resid.=  2.58697872548436E-10
(PID.TID 0000.0001)  cg2d: iter=   107 ; resid.=  2.01943834387883E-10
(PID.TID 0000.0001)  cg2d: iter=   108 ; resid.=  1.65312147634844E-10
(PID.TID 0000.0001)  cg2d: iter=   109 ; resid.=  1.42430663120865E-10
(PID.TID 0000.0001)  cg2d: iter=   110 ; resid.=  1.17404631542532E-10
(PID.TID 0000.0001)  cg2d: iter=   111 ; resid.=  8.84898504513634E-11
(PID.TID 0000.0001)  cg2d: iter=   112 ; resid.=  6.64815813653594E-11
(PID.TID 0000.0001)  cg2d: iter=   113 ; resid.=  5.62606734138409E-11
(PID.TID 0000.0001)  cg2d: iter=   114 ; resid.=  4.92919491421112E-11
(PID.TID 0000.0001)  cg2d: iter=   115 ; resid.=  3.71890893614179E-11
(PID.TID 0000.0001)  cg2d: iter=   116 ; resid.=  2.79063115921377E-11
(PID.TID 0000.0001)  cg2d: iter=   117 ; resid.=  2.08099407520068E-11
(PID.TID 0000.0001)  cg2d: iter=   118 ; resid.=  1.55460861346625E-11
(PID.TID 0000.0001)  cg2d: iter=   119 ; resid.=  1.20572235176308E-11
(PID.TID 0000.0001)  cg2d: iter=   120 ; resid.=  9.91550676156411E-12
(PID.TID 0000.0001)  cg2d: iter=   121 ; resid.=  8.14525285082835E-12
(PID.TID 0000.0001)  cg2d: iter=   122 ; resid.=  6.25675403093624E-12
(PID.TID 0000.0001)  cg2d: iter=   123 ; resid.=  4.65943689433619E-12
(PID.TID 0000.0001)  cg2d: iter=   124 ; resid.=  3.14523098921707E-12
(PID.TID 0000.0001)  cg2d: iter=   125 ; resid.=  2.29021657254566E-12
(PID.TID 0000.0001)  cg2d: iter=   126 ; resid.=  1.70711545674715E-12
(PID.TID 0000.0001)  cg2d: iter=   127 ; resid.=  1.25295372576134E-12
(PID.TID 0000.0001)  cg2d: iter=   128 ; resid.=  9.91236914439810E-13
(PID.TID 0000.0001)  cg2d: iter=   129 ; resid.=  8.10312047109708E-13
(PID.TID 0000.0001)  cg2d: iter=   130 ; resid.=  6.90266016494969E-13
(PID.TID 0000.0001)  cg2d: iter=   131 ; resid.=  5.19295020359040E-13
(PID.TID 0000.0001)  cg2d: iter=   132 ; resid.=  3.90593477976087E-13
(PID.TID 0000.0001)  cg2d: iter=   133 ; resid.=  3.06845242821168E-13
(PID.TID 0000.0001)  cg2d: iter=   134 ; resid.=  2.34515009227822E-13
(PID.TID 0000.0001)  cg2d: iter=   135 ; resid.=  1.73477920780279E-13
(PID.TID 0000.0001)  cg2d: iter=   136 ; resid.=  1.22337852677114E-13
(PID.TID 0000.0001)  cg2d: iter=   137 ; resid.=  8.36529851558985E-14
DEBUG_STATS_RL:    cg2d_x (SOLVE_FOR_PRESSURE)  min= -1.37199447613089E+01
DEBUG_STATS_RL:    cg2d_x (SOLVE_FOR_PRESSURE)  max=  9.54588582366971E+00
DEBUG_STATS_RL:    cg2d_x (SOLVE_FOR_PRESSURE) mean= -1.50259237523741E+00
DEBUG_STATS_RL:    cg2d_x (SOLVE_FOR_PRESSURE) S.D.=  5.80061711695253E+00
(PID.TID 0000.0001)      cg2d_init_res =   9.61612429826277E-01
(PID.TID 0000.0001)      cg2d_iters(min,last) =      -1     137
(PID.TID 0000.0001)      cg2d_last_res =   8.36529851558985E-14
(PID.TID 0000.0001) // =======================================================
(PID.TID 0000.0001) // Begin MONITOR dynamic field statistics
(PID.TID 0000.0001) // =======================================================
(PID.TID 0000.0001) %MON time_tsnumber                =                     9
(PID.TID 0000.0001) %MON time_secondsf                =   7.7760000000000E+05
(PID.TID 0000.0001) %MON dynstat_eta_max              =   9.7307704624565E-01
(PID.TID 0000.0001) %MON dynstat_eta_min              =  -1.3985672539561E+00
(PID.TID 0000.0001) %MON dynstat_eta_mean             =  -6.1266595134789E-04
(PID.TID 0000.0001) %MON dynstat_eta_sd               =   5.2083086989925E-01
(PID.TID 0000.0001) %MON dynstat_eta_del2             =   1.9006231122594E-03
(PID.TID 0000.0001) %MON dynstat_uvel_max             =   1.6072893815377E-01
(PID.TID 0000.0001) %MON dynstat_uvel_min             =  -8.8209841423881E-02
(PID.TID 0000.0001) %MON dynstat_uvel_mean            =   1.5007563336031E-04
(PID.TID 0000.0001) %MON dynstat_uvel_sd              =   1.1087014131336E-02
(PID.TID 0000.0001) %MON dynstat_uvel_del2            =   8.3731315659611E-05
(PID.TID 0000.0001) %MON dynstat_vvel_max             =   9.4683839685053E-02
(PID.TID 0000.0001) %MON dynstat_vvel_min             =  -1.1716439942547E-01
(PID.TID 0000.0001) %MON dynstat_vvel_mean            =  -3.1063711434545E-04
(PID.TID 0000.0001) %MON dynstat_vvel_sd              =   1.0373490457156E-02
(PID.TID 0000.0001) %MON dynstat_vvel_del2            =   1.0580172231056E-04
(PID.TID 0000.0001) %MON dynstat_wvel_max             =   2.2946966526227E-04
(PID.TID 0000.0001) %MON dynstat_wvel_min             =  -1.9651874356748E-04
(PID.TID 0000.0001) %MON dynstat_wvel_mean            =  -5.3789951276638E-22
(PID.TID 0000.0001) %MON dynstat_wvel_sd              =   2.4052380133079E-05
(PID.TID 0000.0001) %MON dynstat_wvel_del2            =   2.8697483017596E-07
(PID.TID 0000.0001) %MON dynstat_theta_max            =   2.9814022834009E+01
(PID.TID 0000.0001) %MON dynstat_theta_min            =  -1.9145157388200E+00
(PID.TID 0000.0001) %MON dynstat_theta_mean           =   3.6194253862977E+00
(PID.TID 0000.0001) %MON dynstat_theta_sd             =   4.4149181450256E+00
(PID.TID 0000.0001) %MON dynstat_theta_del2           =   5.1236238463709E-03
(PID.TID 0000.0001) %MON dynstat_salt_max             =   3.7435655926443E+01
(PID.TID 0000.0001) %MON dynstat_salt_min             =   2.9752475508748E+01
(PID.TID 0000.0001) %MON dynstat_salt_mean            =   3.4717966423913E+01
(PID.TID 0000.0001) %MON dynstat_salt_sd              =   2.9613960352663E-01
(PID.TID 0000.0001) %MON dynstat_salt_del2            =   1.0100537580885E-03
(PID.TID 0000.0001) %MON dynstat_sst_max              =   2.9814022834009E+01
(PID.TID 0000.0001) %MON dynstat_sst_min              =  -1.9145157388200E+00
(PID.TID 0000.0001) %MON dynstat_sst_mean             =   1.8590376726858E+01
(PID.TID 0000.0001) %MON dynstat_sst_sd               =   9.0885812310111E+00
(PID.TID 0000.0001) %MON dynstat_sst_del2             =   2.6196947409599E-02
(PID.TID 0000.0001) %MON dynstat_sss_max              =   3.7431268855404E+01
(PID.TID 0000.0001) %MON dynstat_sss_min              =   2.9752475508748E+01
(PID.TID 0000.0001) %MON dynstat_sss_mean             =   3.4853481366951E+01
(PID.TID 0000.0001) %MON dynstat_sss_sd               =   9.6702744642225E-01
(PID.TID 0000.0001) %MON dynstat_sss_del2             =   8.0020226411120E-03
(PID.TID 0000.0001) %MON forcing_qnet_max             =   4.3427630615234E+02
(PID.TID 0000.0001) %MON forcing_qnet_min             =  -1.8328968454997E+02
(PID.TID 0000.0001) %MON forcing_qnet_mean            =  -1.6600109691805E+01
(PID.TID 0000.0001) %MON forcing_qnet_sd              =   1.1119125063866E+02
(PID.TID 0000.0001) %MON forcing_qnet_del2            =   1.0040237369794E+00
(PID.TID 0000.0001) %MON forcing_qsw_max              =   0.0000000000000E+00
(PID.TID 0000.0001) %MON forcing_qsw_min              =   0.0000000000000E+00
(PID.TID 0000.0001) %MON forcing_qsw_mean             =   0.0000000000000E+00
(PID.TID 0000.0001) %MON forcing_qsw_sd               =   0.0000000000000E+00
(PID.TID 0000.0001) %MON forcing_qsw_del2             =   0.0000000000000E+00
(PID.TID 0000.0001) %MON forcing_empmr_max            =   8.1890940369552E-05
(PID.TID 0000.0001) %MON forcing_empmr_min            =  -7.2715819499081E-05
(PID.TID 0000.0001) %MON forcing_empmr_mean           =   8.5454875789209E-07
(PID.TID 0000.0001) %MON forcing_empmr_sd             =   2.8214283860046E-05
(PID.TID 0000.0001) %MON forcing_empmr_del2           =   3.6290034923196E-07
(PID.TID 0000.0001) %MON forcing_fu_max               =   2.6993649601936E-01
(PID.TID 0000.0001) %MON forcing_fu_min               =  -1.6518663018942E-01
(PID.TID 0000.0001) %MON forcing_fu_mean              =   1.6055584899826E-02
(PID.TID 0000.0001) %MON forcing_fu_sd                =   9.0336157001452E-02
(PID.TID 0000.0001) %MON forcing_fu_del2              =   6.7811877937571E-04
(PID.TID 0000.0001) %MON forcing_fv_max               =   2.1996198445559E-01
(PID.TID 0000.0001) %MON forcing_fv_min               =  -1.8222950249910E-01
(PID.TID 0000.0001) %MON forcing_fv_mean              =  -5.7752354275307E-03
(PID.TID 0000.0001) %MON forcing_fv_sd                =   4.6406538642117E-02
(PID.TID 0000.0001) %MON forcing_fv_del2              =   4.6058148956476E-04
(PID.TID 0000.0001) %MON trAdv_CFL_u_max              =   4.4537471898983E-02
(PID.TID 0000.0001) %MON trAdv_CFL_v_max              =   2.1576088990447E-02
(PID.TID 0000.0001) %MON trAdv_CFL_w_max              =   7.2121758601298E-02
(PID.TID 0000.0001) %MON advcfl_uvel_max              =   4.7851653675974E-02
(PID.TID 0000.0001) %MON advcfl_vvel_max              =   2.2763163717317E-02
(PID.TID 0000.0001) %MON advcfl_wvel_max              =   7.9723980851976E-02
(PID.TID 0000.0001) %MON advcfl_W_hf_max              =   9.0213978332499E-02
(PID.TID 0000.0001) %MON pe_b_mean                    =   3.4711648188514E-04
(PID.TID 0000.0001) %MON ke_max                       =   1.3121333482833E-02
(PID.TID 0000.0001) %MON ke_mean                      =   1.0420935903334E-04
(PID.TID 0000.0001) %MON ke_vol                       =   1.3226782436723E+18
(PID.TID 0000.0001) %MON vort_r_min                   =  -3.3580342878035E-07
(PID.TID 0000.0001) %MON vort_r_max                   =   2.6531504706262E-07
(PID.TID 0000.0001) %MON vort_a_mean                  =  -2.5274807120206E-05
(PID.TID 0000.0001) %MON vort_a_sd                    =   7.3604367134789E-05
(PID.TID 0000.0001) %MON vort_p_mean                  =  -3.1845655450150E-05
(PID.TID 0000.0001) %MON vort_p_sd                    =   1.3162429504729E-04
(PID.TID 0000.0001) %MON surfExpan_theta_mean         =   2.7665901119843E-09
(PID.TID 0000.0001) %MON surfExpan_salt_mean          =  -9.2884900674885E-08
(PID.TID 0000.0001) // =======================================================
(PID.TID 0000.0001) // End MONITOR dynamic field statistics
(PID.TID 0000.0001) // =======================================================
 EXTERNAL_FIELDS_LOAD,         9 : iP,iLd,i0,i1=   12    1   12    1 ; Wght=  0.2000000000  0.8000000000
 EXTERNAL_FIELDS_LOAD: (fu0,1),fu,fv= -4.5368E-02 -3.5633E-02 -3.7580E-02 -5.9855E-02
 EXTERNAL_FIELDS_LOAD: SST,SSS,Q,E-P=  5.9632E-01  3.4574E+01  2.6550E+02  1.1319E-05
DEBUG_STATS_RL:          Uvel (THERMODYNAMICS)  min= -8.82098414238815E-02
DEBUG_STATS_RL:          Uvel (THERMODYNAMICS)  max=  1.60728938153766E-01
DEBUG_STATS_RL:          Uvel (THERMODYNAMICS) mean=  4.34293011660843E-03
DEBUG_STATS_RL:          Uvel (THERMODYNAMICS) S.D.=  1.86994105181849E-02
DEBUG_STATS_RL:          Vvel (THERMODYNAMICS)  min= -1.17164399425470E-01
DEBUG_STATS_RL:          Vvel (THERMODYNAMICS)  max=  9.46838396850526E-02
DEBUG_STATS_RL:          Vvel (THERMODYNAMICS) mean= -1.93535463384070E-03
DEBUG_STATS_RL:          Vvel (THERMODYNAMICS) S.D.=  1.55384280435330E-02
DEBUG_STATS_RL:          Wvel (THERMODYNAMICS)  min= -1.96518743567482E-04
DEBUG_STATS_RL:          Wvel (THERMODYNAMICS)  max=  2.29469665262271E-04
DEBUG_STATS_RL:          Wvel (THERMODYNAMICS) mean= -6.37466983773209E-07
DEBUG_STATS_RL:          Wvel (THERMODYNAMICS) S.D.=  2.21877738351264E-05
DEBUG_STATS_RL:         Theta (THERMODYNAMICS)  min= -1.91481720549258E+00
DEBUG_STATS_RL:         Theta (THERMODYNAMICS)  max=  2.98201783954487E+01
DEBUG_STATS_RL:         Theta (THERMODYNAMICS) mean=  5.90342268140603E+00
DEBUG_STATS_RL:         Theta (THERMODYNAMICS) S.D.=  6.86612549620274E+00
DEBUG_STATS_RL:          Salt (THERMODYNAMICS)  min=  2.97522702852142E+01
DEBUG_STATS_RL:          Salt (THERMODYNAMICS)  max=  3.74361976600831E+01
DEBUG_STATS_RL:          Salt (THERMODYNAMICS) mean=  3.47210159283917E+01
DEBUG_STATS_RL:          Salt (THERMODYNAMICS) S.D.=  4.86880331523951E-01
DEBUG_STATS_RL:         GtNm1 (THERMODYNAMICS)  min= -3.53417081620095E-06
DEBUG_STATS_RL:         GtNm1 (THERMODYNAMICS)  max=  2.93985652228713E-06
DEBUG_STATS_RL:         GtNm1 (THERMODYNAMICS) mean=  2.51747822836036E-08
DEBUG_STATS_RL:         GtNm1 (THERMODYNAMICS) S.D.=  2.69394812740822E-07
DEBUG_STATS_RL:         GsNm1 (THERMODYNAMICS)  min= -4.93676191974350E-07
DEBUG_STATS_RL:         GsNm1 (THERMODYNAMICS)  max=  6.25310406531257E-07
DEBUG_STATS_RL:         GsNm1 (THERMODYNAMICS) mean=  3.39410896615221E-10
DEBUG_STATS_RL:         GsNm1 (THERMODYNAMICS) S.D.=  2.22764797012992E-08
DEBUG_STATS_RL:                EtaN (DYNAMICS)  min= -1.39856725395606E+00
DEBUG_STATS_RL:                EtaN (DYNAMICS)  max=  9.73077046245654E-01
DEBUG_STATS_RL:                EtaN (DYNAMICS) mean= -1.53169457210746E-01
DEBUG_STATS_RL:                EtaN (DYNAMICS) S.D.=  5.91296342196997E-01
DEBUG_STATS_RL:                Uvel (DYNAMICS)  min= -8.82098414238815E-02
DEBUG_STATS_RL:                Uvel (DYNAMICS)  max=  1.60728938153766E-01
DEBUG_STATS_RL:                Uvel (DYNAMICS) mean=  4.34293011660843E-03
DEBUG_STATS_RL:                Uvel (DYNAMICS) S.D.=  1.86994105181849E-02
DEBUG_STATS_RL:                Vvel (DYNAMICS)  min= -1.17164399425470E-01
DEBUG_STATS_RL:                Vvel (DYNAMICS)  max=  9.46838396850526E-02
DEBUG_STATS_RL:                Vvel (DYNAMICS) mean= -1.93535463384070E-03
DEBUG_STATS_RL:                Vvel (DYNAMICS) S.D.=  1.55384280435330E-02
DEBUG_STATS_RL:                Wvel (DYNAMICS)  min= -1.96518743567482E-04
DEBUG_STATS_RL:                Wvel (DYNAMICS)  max=  2.29469665262271E-04
DEBUG_STATS_RL:                Wvel (DYNAMICS) mean= -6.37466983773209E-07
DEBUG_STATS_RL:                Wvel (DYNAMICS) S.D.=  2.21877738351264E-05
DEBUG_STATS_RL:               Theta (DYNAMICS)  min= -1.91481720549258E+00
DEBUG_STATS_RL:               Theta (DYNAMICS)  max=  2.98201783954487E+01
DEBUG_STATS_RL:               Theta (DYNAMICS) mean=  5.90342268140603E+00
DEBUG_STATS_RL:               Theta (DYNAMICS) S.D.=  6.86612549620274E+00
DEBUG_STATS_RL:                Salt (DYNAMICS)  min=  2.97522702852142E+01
DEBUG_STATS_RL:                Salt (DYNAMICS)  max=  3.74361976600831E+01
DEBUG_STATS_RL:                Salt (DYNAMICS) mean=  3.47210159283917E+01
DEBUG_STATS_RL:                Salt (DYNAMICS) S.D.=  4.86880331523951E-01
DEBUG_STATS_RL:                  Gu (DYNAMICS)  min= -8.30387594416516E-02
DEBUG_STATS_RL:                  Gu (DYNAMICS)  max=  1.70097086698640E-01
DEBUG_STATS_RL:                  Gu (DYNAMICS) mean=  4.82118862897159E-03
DEBUG_STATS_RL:                  Gu (DYNAMICS) S.D.=  2.06947090880901E-02
DEBUG_STATS_RL:                  Gv (DYNAMICS)  min= -9.62492247939831E-02
DEBUG_STATS_RL:                  Gv (DYNAMICS)  max=  1.00161673783137E-01
DEBUG_STATS_RL:                  Gv (DYNAMICS) mean=  2.70325245267658E-04
DEBUG_STATS_RL:                  Gv (DYNAMICS) S.D.=  1.44804508762356E-02
DEBUG_STATS_RL:               GuNm1 (DYNAMICS)  min= -6.56743389611191E-06
DEBUG_STATS_RL:               GuNm1 (DYNAMICS)  max=  7.09693527855777E-06
DEBUG_STATS_RL:               GuNm1 (DYNAMICS) mean= -2.66387392926260E-08
DEBUG_STATS_RL:               GuNm1 (DYNAMICS) S.D.=  1.15166341174570E-06
DEBUG_STATS_RL:               GvNm1 (DYNAMICS)  min= -9.60076508143879E-06
DEBUG_STATS_RL:               GvNm1 (DYNAMICS)  max=  1.64762009341323E-05
DEBUG_STATS_RL:               GvNm1 (DYNAMICS) mean=  7.75396234634269E-07
DEBUG_STATS_RL:               GvNm1 (DYNAMICS) S.D.=  2.65623787693411E-06
DEBUG_STATS_RL:               GtNm1 (DYNAMICS)  min= -3.53417081620095E-06
DEBUG_STATS_RL:               GtNm1 (DYNAMICS)  max=  2.93985652228713E-06
DEBUG_STATS_RL:               GtNm1 (DYNAMICS) mean=  2.51747822836036E-08
DEBUG_STATS_RL:               GtNm1 (DYNAMICS) S.D.=  2.69394812740822E-07
DEBUG_STATS_RL:               GsNm1 (DYNAMICS)  min= -4.93676191974350E-07
DEBUG_STATS_RL:               GsNm1 (DYNAMICS)  max=  6.25310406531257E-07
DEBUG_STATS_RL:               GsNm1 (DYNAMICS) mean=  3.39410896615221E-10
DEBUG_STATS_RL:               GsNm1 (DYNAMICS) S.D.=  2.22764797012992E-08
DEBUG_STATS_RL:    cg2d_b (SOLVE_FOR_PRESSURE)  min= -1.70682465354712E+04
DEBUG_STATS_RL:    cg2d_b (SOLVE_FOR_PRESSURE)  max=  1.48860442912715E+04
DEBUG_STATS_RL:    cg2d_b (SOLVE_FOR_PRESSURE) mean=  6.56348004155229E-01
DEBUG_STATS_RL:    cg2d_b (SOLVE_FOR_PRESSURE) S.D.=  3.42161079659827E+03
 cg2d: Sum(rhs),rhsMax =   8.90217765757679E-02  1.12108813141188E+00
(PID.TID 0000.0001)  cg2d: iter=     1 ; resid.=  2.65962433171845E-01
(PID.TID 0000.0001)  cg2d: iter=     2 ; resid.=  2.70795582433239E-01
(PID.TID 0000.0001)  cg2d: iter=     3 ; resid.=  3.48564608953718E-01
(PID.TID 0000.0001)  cg2d: iter=     4 ; resid.=  2.62498886016768E-01
(PID.TID 0000.0001)  cg2d: iter=     5 ; resid.=  2.27950685626103E-01
(PID.TID 0000.0001)  cg2d: iter=     6 ; resid.=  1.99037664761187E-01
(PID.TID 0000.0001)  cg2d: iter=     7 ; resid.=  1.45296485583360E-01
(PID.TID 0000.0001)  cg2d: iter=     8 ; resid.=  1.00504380732736E-01
(PID.TID 0000.0001)  cg2d: iter=     9 ; resid.=  7.82850391643053E-02
(PID.TID 0000.0001)  cg2d: iter=    10 ; resid.=  6.64499028081073E-02
(PID.TID 0000.0001)  cg2d: iter=    11 ; resid.=  6.59437092477607E-02
(PID.TID 0000.0001)  cg2d: iter=    12 ; resid.=  5.70011322584024E-02
(PID.TID 0000.0001)  cg2d: iter=    13 ; resid.=  4.81741106443086E-02
(PID.TID 0000.0001)  cg2d: iter=    14 ; resid.=  4.21210037627493E-02
(PID.TID 0000.0001)  cg2d: iter=    15 ; resid.=  3.67977351833766E-02
(PID.TID 0000.0001)  cg2d: iter=    16 ; resid.=  3.22288721023410E-02
(PID.TID 0000.0001)  cg2d: iter=    17 ; resid.=  3.01318556542884E-02
(PID.TID 0000.0001)  cg2d: iter=    18 ; resid.=  2.47034510433287E-02
(PID.TID 0000.0001)  cg2d: iter=    19 ; resid.=  1.87478779338147E-02
(PID.TID 0000.0001)  cg2d: iter=    20 ; resid.=  1.42293409845448E-02
(PID.TID 0000.0001)  cg2d: iter=    21 ; resid.=  1.05148240438983E-02
(PID.TID 0000.0001)  cg2d: iter=    22 ; resid.=  9.60425320851562E-03
(PID.TID 0000.0001)  cg2d: iter=    23 ; resid.=  9.14022355462083E-03
(PID.TID 0000.0001)  cg2d: iter=    24 ; resid.=  7.84027092898679E-03
(PID.TID 0000.0001)  cg2d: iter=    25 ; resid.=  6.76122031163743E-03
(PID.TID 0000.0001)  cg2d: iter=    26 ; resid.=  5.41848760144595E-03
(PID.TID 0000.0001)  cg2d: iter=    27 ; resid.=  4.66961870941853E-03
(PID.TID 0000.0001)  cg2d: iter=    28 ; resid.=  4.12977994196532E-03
(PID.TID 0000.0001)  cg2d: iter=    29 ; resid.=  3.02454275018730E-03
(PID.TID 0000.0001)  cg2d: iter=    30 ; resid.=  2.18379332908138E-03
(PID.TID 0000.0001)  cg2d: iter=    31 ; resid.=  1.71277300443252E-03
(PID.TID 0000.0001)  cg2d: iter=    32 ; resid.=  1.25005995870036E-03
(PID.TID 0000.0001)  cg2d: iter=    33 ; resid.=  9.87722472440575E-04
(PID.TID 0000.0001)  cg2d: iter=    34 ; resid.=  8.67345573095073E-04
(PID.TID 0000.0001)  cg2d: iter=    35 ; resid.=  7.79217362335196E-04
(PID.TID 0000.0001)  cg2d: iter=    36 ; resid.=  7.32411126378332E-04
(PID.TID 0000.0001)  cg2d: iter=    37 ; resid.=  6.71270751344048E-04
(PID.TID 0000.0001)  cg2d: iter=    38 ; resid.=  6.28049937306541E-04
(PID.TID 0000.0001)  cg2d: iter=    39 ; resid.=  5.18295674569821E-04
(PID.TID 0000.0001)  cg2d: iter=    40 ; resid.=  4.09633534929215E-04
(PID.TID 0000.0001)  cg2d: iter=    41 ; resid.=  3.48677369468784E-04
(PID.TID 0000.0001)  cg2d: iter=    42 ; resid.=  3.21484031936954E-04
(PID.TID 0000.0001)  cg2d: iter=    43 ; resid.=  2.61250840078392E-04
(PID.TID 0000.0001)  cg2d: iter=    44 ; resid.=  1.77521861194641E-04
(PID.TID 0000.0001)  cg2d: iter=    45 ; resid.=  1.30341996895268E-04
(PID.TID 0000.0001)  cg2d: iter=    46 ; resid.=  1.15242986845091E-04
(PID.TID 0000.0001)  cg2d: iter=    47 ; resid.=  1.00635931301431E-04
(PID.TID 0000.0001)  cg2d: iter=    48 ; resid.=  8.20348505928445E-05
(PID.TID 0000.0001)  cg2d: iter=    49 ; resid.=  6.01521392686819E-05
(PID.TID 0000.0001)  cg2d: iter=    50 ; resid.=  4.54957013402408E-05
(PID.TID 0000.0001)  cg2d: iter=    51 ; resid.=  3.75819425647165E-05
(PID.TID 0000.0001)  cg2d: iter=    52 ; resid.=  3.16270801654008E-05
(PID.TID 0000.0001)  cg2d: iter=    53 ; resid.=  2.66744871547927E-05
(PID.TID 0000.0001)  cg2d: iter=    54 ; resid.=  2.18280796835832E-05
(PID.TID 0000.0001)  cg2d: iter=    55 ; resid.=  1.87519090895508E-05
(PID.TID 0000.0001)  cg2d: iter=    56 ; resid.=  1.74634128327550E-05
(PID.TID 0000.0001)  cg2d: iter=    57 ; resid.=  1.42443654113054E-05
(PID.TID 0000.0001)  cg2d: iter=    58 ; resid.=  1.09674452646998E-05
(PID.TID 0000.0001)  cg2d: iter=    59 ; resid.=  8.52507262019086E-06
(PID.TID 0000.0001)  cg2d: iter=    60 ; resid.=  6.84528060305955E-06
(PID.TID 0000.0001)  cg2d: iter=    61 ; resid.=  5.60625663586638E-06
(PID.TID 0000.0001)  cg2d: iter=    62 ; resid.=  4.51945397436388E-06
(PID.TID 0000.0001)  cg2d: iter=    63 ; resid.=  3.68353931588461E-06
(PID.TID 0000.0001)  cg2d: iter=    64 ; resid.=  3.35465586851021E-06
(PID.TID 0000.0001)  cg2d: iter=    65 ; resid.=  2.79843639746990E-06
(PID.TID 0000.0001)  cg2d: iter=    66 ; resid.=  2.00119342706844E-06
(PID.TID 0000.0001)  cg2d: iter=    67 ; resid.=  1.51487202193525E-06
(PID.TID 0000.0001)  cg2d: iter=    68 ; resid.=  1.30044385415725E-06
(PID.TID 0000.0001)  cg2d: iter=    69 ; resid.=  9.47786146611945E-07
(PID.TID 0000.0001)  cg2d: iter=    70 ; resid.=  7.18719966934740E-07
(PID.TID 0000.0001)  cg2d: iter=    71 ; resid.=  5.65243123207001E-07
(PID.TID 0000.0001)  cg2d: iter=    72 ; resid.=  4.47546733500983E-07
(PID.TID 0000.0001)  cg2d: iter=    73 ; resid.=  3.93811940731585E-07
(PID.TID 0000.0001)  cg2d: iter=    74 ; resid.=  3.70019859469168E-07
(PID.TID 0000.0001)  cg2d: iter=    75 ; resid.=  2.91154247794401E-07
(PID.TID 0000.0001)  cg2d: iter=    76 ; resid.=  2.49070416993472E-07
(PID.TID 0000.0001)  cg2d: iter=    77 ; resid.=  2.12845430588853E-07
(PID.TID 0000.0001)  cg2d: iter=    78 ; resid.=  1.77811789827193E-07
(PID.TID 0000.0001)  cg2d: iter=    79 ; resid.=  1.53993697500002E-07
(PID.TID 0000.0001)  cg2d: iter=    80 ; resid.=  1.29791878235689E-07
(PID.TID 0000.0001)  cg2d: iter=    81 ; resid.=  1.07456509597809E-07
(PID.TID 0000.0001)  cg2d: iter=    82 ; resid.=  8.69651486257691E-08
(PID.TID 0000.0001)  cg2d: iter=    83 ; resid.=  7.06311751393448E-08
(PID.TID 0000.0001)  cg2d: iter=    84 ; resid.=  5.83273492663122E-08
(PID.TID 0000.0001)  cg2d: iter=    85 ; resid.=  4.50533298421204E-08
(PID.TID 0000.0001)  cg2d: iter=    86 ; resid.=  3.34463075566010E-08
(PID.TID 0000.0001)  cg2d: iter=    87 ; resid.=  2.60396625374795E-08
(PID.TID 0000.0001)  cg2d: iter=    88 ; resid.=  1.96311426639266E-08
(PID.TID 0000.0001)  cg2d: iter=    89 ; resid.=  1.62056321348258E-08
(PID.TID 0000.0001)  cg2d: iter=    90 ; resid.=  1.31024542625942E-08
(PID.TID 0000.0001)  cg2d: iter=    91 ; resid.=  9.98305392276562E-09
(PID.TID 0000.0001)  cg2d: iter=    92 ; resid.=  7.94688062801839E-09
(PID.TID 0000.0001)  cg2d: iter=    93 ; resid.=  6.19680921008084E-09
(PID.TID 0000.0001)  cg2d: iter=    94 ; resid.=  4.41891810463429E-09
(PID.TID 0000.0001)  cg2d: iter=    95 ; resid.=  3.20735683350641E-09
(PID.TID 0000.0001)  cg2d: iter=    96 ; resid.=  2.40033097679147E-09
(PID.TID 0000.0001)  cg2d: iter=    97 ; resid.=  1.69698280739888E-09
(PID.TID 0000.0001)  cg2d: iter=    98 ; resid.=  1.21837019410672E-09
(PID.TID 0000.0001)  cg2d: iter=    99 ; resid.=  1.00453805852486E-09
(PID.TID 0000.0001)  cg2d: iter=   100 ; resid.=  7.93342504783973E-10
(PID.TID 0000.0001)  cg2d: iter=   101 ; resid.=  6.50088301838859E-10
(PID.TID 0000.0001)  cg2d: iter=   102 ; resid.=  5.28428170578694E-10
(PID.TID 0000.0001)  cg2d: iter=   103 ; resid.=  4.17523287054532E-10
(PID.TID 0000.0001)  cg2d: iter=   104 ; resid.=  3.26283129418617E-10
(PID.TID 0000.0001)  cg2d: iter=   105 ; resid.=  2.59926780254906E-10
(PID.TID 0000.0001)  cg2d: iter=   106 ; resid.=  1.88781180963222E-10
(PID.TID 0000.0001)  cg2d: iter=   107 ; resid.=  1.37433074328914E-10
(PID.TID 0000.0001)  cg2d: iter=   108 ; resid.=  1.03084162482183E-10
(PID.TID 0000.0001)  cg2d: iter=   109 ; resid.=  8.17808825071522E-11
(PID.TID 0000.0001)  cg2d: iter=   110 ; resid.=  6.69463960325622E-11
(PID.TID 0000.0001)  cg2d: iter=   111 ; resid.=  5.38253236389435E-11
(PID.TID 0000.0001)  cg2d: iter=   112 ; resid.=  4.28256235959410E-11
(PID.TID 0000.0001)  cg2d: iter=   113 ; resid.=  3.40049573131209E-11
(PID.TID 0000.0001)  cg2d: iter=   114 ; resid.=  3.10502298487208E-11
(PID.TID 0000.0001)  cg2d: iter=   115 ; resid.=  2.78133318476343E-11
(PID.TID 0000.0001)  cg2d: iter=   116 ; resid.=  2.46738145238069E-11
(PID.TID 0000.0001)  cg2d: iter=   117 ; resid.=  1.91087347537862E-11
(PID.TID 0000.0001)  cg2d: iter=   118 ; resid.=  1.38895205901205E-11
(PID.TID 0000.0001)  cg2d: iter=   119 ; resid.=  1.08553299320140E-11
(PID.TID 0000.0001)  cg2d: iter=   120 ; resid.=  8.92226233684758E-12
(PID.TID 0000.0001)  cg2d: iter=   121 ; resid.=  7.24382828012920E-12
(PID.TID 0000.0001)  cg2d: iter=   122 ; resid.=  5.60011635375476E-12
(PID.TID 0000.0001)  cg2d: iter=   123 ; resid.=  4.34214188057551E-12
(PID.TID 0000.0001)  cg2d: iter=   124 ; resid.=  3.04138019956157E-12
(PID.TID 0000.0001)  cg2d: iter=   125 ; resid.=  2.22353193351988E-12
(PID.TID 0000.0001)  cg2d: iter=   126 ; resid.=  1.55997558073843E-12
(PID.TID 0000.0001)  cg2d: iter=   127 ; resid.=  1.08635220906557E-12
(PID.TID 0000.0001)  cg2d: iter=   128 ; resid.=  8.45060982850553E-13
(PID.TID 0000.0001)  cg2d: iter=   129 ; resid.=  6.57911142758849E-13
(PID.TID 0000.0001)  cg2d: iter=   130 ; resid.=  5.59553551507248E-13
(PID.TID 0000.0001)  cg2d: iter=   131 ; resid.=  4.55836886097864E-13
(PID.TID 0000.0001)  cg2d: iter=   132 ; resid.=  3.72315761829806E-13
(PID.TID 0000.0001)  cg2d: iter=   133 ; resid.=  2.87514256103832E-13
(PID.TID 0000.0001)  cg2d: iter=   134 ; resid.=  2.12288328104433E-13
(PID.TID 0000.0001)  cg2d: iter=   135 ; resid.=  1.54448587650985E-13
(PID.TID 0000.0001)  cg2d: iter=   136 ; resid.=  1.09299326950305E-13
(PID.TID 0000.0001)  cg2d: iter=   137 ; resid.=  7.58276245765408E-14
DEBUG_STATS_RL:    cg2d_x (SOLVE_FOR_PRESSURE)  min= -1.34846147520977E+01
DEBUG_STATS_RL:    cg2d_x (SOLVE_FOR_PRESSURE)  max=  8.48908397246397E+00
DEBUG_STATS_RL:    cg2d_x (SOLVE_FOR_PRESSURE) mean= -1.50188098222007E+00
DEBUG_STATS_RL:    cg2d_x (SOLVE_FOR_PRESSURE) S.D.=  5.80484511751259E+00
(PID.TID 0000.0001)      cg2d_init_res =   9.58990196725407E-01
(PID.TID 0000.0001)      cg2d_iters(min,last) =      -1     137
(PID.TID 0000.0001)      cg2d_last_res =   7.58276245765408E-14
(PID.TID 0000.0001) // =======================================================
(PID.TID 0000.0001) // Begin MONITOR dynamic field statistics
(PID.TID 0000.0001) // =======================================================
(PID.TID 0000.0001) %MON time_tsnumber                =                    10
(PID.TID 0000.0001) %MON time_secondsf                =   8.6400000000000E+05
(PID.TID 0000.0001) %MON dynstat_eta_max              =   8.6535004816147E-01
(PID.TID 0000.0001) %MON dynstat_eta_min              =  -1.3745784660650E+00
(PID.TID 0000.0001) %MON dynstat_eta_mean             =  -6.8481775787104E-04
(PID.TID 0000.0001) %MON dynstat_eta_sd               =   5.2244957561761E-01
(PID.TID 0000.0001) %MON dynstat_eta_del2             =   1.8330182581699E-03
(PID.TID 0000.0001) %MON dynstat_uvel_max             =   1.7207584265125E-01
(PID.TID 0000.0001) %MON dynstat_uvel_min             =  -8.6286861634047E-02
(PID.TID 0000.0001) %MON dynstat_uvel_mean            =   3.1196871939806E-04
(PID.TID 0000.0001) %MON dynstat_uvel_sd              =   1.2247783753063E-02
(PID.TID 0000.0001) %MON dynstat_uvel_del2            =   8.5899409222457E-05
(PID.TID 0000.0001) %MON dynstat_vvel_max             =   9.7942651735548E-02
(PID.TID 0000.0001) %MON dynstat_vvel_min             =  -1.1618687895657E-01
(PID.TID 0000.0001) %MON dynstat_vvel_mean            =  -2.6819396294157E-04
(PID.TID 0000.0001) %MON dynstat_vvel_sd              =   1.0254105768482E-02
(PID.TID 0000.0001) %MON dynstat_vvel_del2            =   1.0356263406689E-04
(PID.TID 0000.0001) %MON dynstat_wvel_max             =   2.1779891435289E-04
(PID.TID 0000.0001) %MON dynstat_wvel_min             =  -1.9514423993064E-04
(PID.TID 0000.0001) %MON dynstat_wvel_mean            =   8.4264520442429E-23
(PID.TID 0000.0001) %MON dynstat_wvel_sd              =   2.2816091985837E-05
(PID.TID 0000.0001) %MON dynstat_wvel_del2            =   2.6065743466720E-07
(PID.TID 0000.0001) %MON dynstat_theta_max            =   2.9820178395449E+01
(PID.TID 0000.0001) %MON dynstat_theta_min            =  -1.9148172054926E+00
(PID.TID 0000.0001) %MON dynstat_theta_mean           =   3.6195068299391E+00
(PID.TID 0000.0001) %MON dynstat_theta_sd             =   4.4149701105280E+00
(PID.TID 0000.0001) %MON dynstat_theta_del2           =   5.0681870231841E-03
(PID.TID 0000.0001) %MON dynstat_salt_max             =   3.7436197660083E+01
(PID.TID 0000.0001) %MON dynstat_salt_min             =   2.9752270285214E+01
(PID.TID 0000.0001) %MON dynstat_salt_mean            =   3.4717968842231E+01
(PID.TID 0000.0001) %MON dynstat_salt_sd              =   2.9615336949857E-01
(PID.TID 0000.0001) %MON dynstat_salt_del2            =   1.0094456254689E-03
(PID.TID 0000.0001) %MON dynstat_sst_max              =   2.9820178395449E+01
(PID.TID 0000.0001) %MON dynstat_sst_min              =  -1.9148172054926E+00
(PID.TID 0000.0001) %MON dynstat_sst_mean             =   1.8603645029404E+01
(PID.TID 0000.0001) %MON dynstat_sst_sd               =   9.0805517900461E+00
(PID.TID 0000.0001) %MON dynstat_sst_del2             =   2.6157899256574E-02
(PID.TID 0000.0001) %MON dynstat_sss_max              =   3.7430485108677E+01
(PID.TID 0000.0001) %MON dynstat_sss_min              =   2.9752270285214E+01
(PID.TID 0000.0001) %MON dynstat_sss_mean             =   3.4853904286371E+01
(PID.TID 0000.0001) %MON dynstat_sss_sd               =   9.6740963555518E-01
(PID.TID 0000.0001) %MON dynstat_sss_del2             =   7.9931868047148E-03
(PID.TID 0000.0001) %MON forcing_qnet_max             =   4.3532449340820E+02
(PID.TID 0000.0001) %MON forcing_qnet_min             =  -1.8282252197266E+02
(PID.TID 0000.0001) %MON forcing_qnet_mean            =  -1.6587597735982E+01
(PID.TID 0000.0001) %MON forcing_qnet_sd              =   1.1099484968291E+02
(PID.TID 0000.0001) %MON forcing_qnet_del2            =   1.0064568232602E+00
(PID.TID 0000.0001) %MON forcing_qsw_max              =   0.0000000000000E+00
(PID.TID 0000.0001) %MON forcing_qsw_min              =   0.0000000000000E+00
(PID.TID 0000.0001) %MON forcing_qsw_mean             =   0.0000000000000E+00
(PID.TID 0000.0001) %MON forcing_qsw_sd               =   0.0000000000000E+00
(PID.TID 0000.0001) %MON forcing_qsw_del2             =   0.0000000000000E+00
(PID.TID 0000.0001) %MON forcing_empmr_max            =   8.1892606829115E-05
(PID.TID 0000.0001) %MON forcing_empmr_min            =  -7.3098166808450E-05
(PID.TID 0000.0001) %MON forcing_empmr_mean           =   8.6431851563760E-07
(PID.TID 0000.0001) %MON forcing_empmr_sd             =   2.8285734796509E-05
(PID.TID 0000.0001) %MON forcing_empmr_del2           =   3.6322996729435E-07
(PID.TID 0000.0001) %MON forcing_fu_max               =   2.7001778483391E-01
(PID.TID 0000.0001) %MON forcing_fu_min               =  -1.6600005030632E-01
(PID.TID 0000.0001) %MON forcing_fu_mean              =   1.6047892078789E-02
(PID.TID 0000.0001) %MON forcing_fu_sd                =   9.0407764820516E-02
(PID.TID 0000.0001) %MON forcing_fu_del2              =   6.8344110701255E-04
(PID.TID 0000.0001) %MON forcing_fv_max               =   2.2184188961983E-01
(PID.TID 0000.0001) %MON forcing_fv_min               =  -1.8164484500885E-01
(PID.TID 0000.0001) %MON forcing_fv_mean              =  -5.7014729006699E-03
(PID.TID 0000.0001) %MON forcing_fv_sd                =   4.6628624802842E-02
(PID.TID 0000.0001) %MON forcing_fv_del2              =   4.6475770842672E-04
(PID.TID 0000.0001) %MON trAdv_CFL_u_max              =   4.7861372689076E-02
(PID.TID 0000.0001) %MON trAdv_CFL_v_max              =   2.2038470631622E-02
(PID.TID 0000.0001) %MON trAdv_CFL_w_max              =   7.1419399513229E-02
(PID.TID 0000.0001) %MON advcfl_uvel_max              =   5.0026238031381E-02
(PID.TID 0000.0001) %MON advcfl_vvel_max              =   2.2573247167754E-02
(PID.TID 0000.0001) %MON advcfl_wvel_max              =   7.6751140246428E-02
(PID.TID 0000.0001) %MON advcfl_W_hf_max              =   8.6849974489379E-02
(PID.TID 0000.0001) %MON pe_b_mean                    =   3.4927757879679E-04
(PID.TID 0000.0001) %MON ke_max                       =   1.4744235999482E-02
(PID.TID 0000.0001) %MON ke_mean                      =   1.1543246259796E-04
(PID.TID 0000.0001) %MON ke_vol                       =   1.3226782436723E+18
(PID.TID 0000.0001) %MON vort_r_min                   =  -3.6961494934547E-07
(PID.TID 0000.0001) %MON vort_r_max                   =   2.8628332791627E-07
(PID.TID 0000.0001) %MON vort_a_mean                  =  -2.5274807184968E-05
(PID.TID 0000.0001) %MON vort_a_sd                    =   7.3604389402489E-05
(PID.TID 0000.0001) %MON vort_p_mean                  =  -3.1845655531748E-05
(PID.TID 0000.0001) %MON vort_p_sd                    =   1.3162413423834E-04
(PID.TID 0000.0001) %MON surfExpan_theta_mean         =   3.5430555204092E-07
(PID.TID 0000.0001) %MON surfExpan_salt_mean          =  -7.1086193239737E-08
(PID.TID 0000.0001) // =======================================================
(PID.TID 0000.0001) // End MONITOR dynamic field statistics
(PID.TID 0000.0001) // =======================================================
(PID.TID 0000.0001) // =======================================================
(PID.TID 0000.0001) // Field Current uVel   at iteration         10
(PID.TID 0000.0001) // CMIN =         -8.628686163404733E-02
(PID.TID 0000.0001) // CMAX =          1.720758426512503E-01
(PID.TID 0000.0001) // CINT =          9.568989047603615E-03
(PID.TID 0000.0001) // SYMBOLS (CMIN->CMAX): -abcdefghijklmnopqrstuvwxyz+
(PID.TID 0000.0001) //                  0.0: .
(PID.TID 0000.0001) // RANGE I (Lo:Hi:Step):(     1:    90:     1)
(PID.TID 0000.0001) // RANGE J (Lo:Hi:Step):(    40:     1:    -1)
(PID.TID 0000.0001) // RANGE K (Lo:Hi:Step):(   1:   1:   1)
(PID.TID 0000.0001) // =======================================================
(PID.TID 0000.0001) K =   1
(PID.TID 0000.0001)                I=10      I=20      I=30      I=40      I=50      I=60      I=70      I=80      I=90
(PID.TID 0000.0001) |--J--|123456789|123456789|123456789|123456789|123456789|123456789|123456789|123456789|123456789|
(PID.TID 0000.0001)     40 iiihh..ihhiiiiiiiii...................................................................hhhh
(PID.TID 0000.0001)     39 ijjihihhhhiiii....i......................................................iii.........hgffg
(PID.TID 0000.0001)     38 ijkkkkjjjjjjj............................................................iiih.......gggggh
(PID.TID 0000.0001)     37 kkj...................................................................i....gh....ggfg..ijk
(PID.TID 0000.0001)     36 lk..........................................ffg.....................iijjjjigfh..hgijkklmll
(PID.TID 0000.0001)     35 kj..................................hgg...hfeeeh....hhhi............ij.....jjjjjklmnoppqml
(PID.TID 0000.0001)     34 ....................................ihh..ghhgggh..jkjjkki...................kooopqrrrrrn..
(PID.TID 0000.0001)     33 .....................................ijihhhjjijklklnooonmki..................prqtwvutsrok.
(PID.TID 0000.0001)     32 .....................................iklkklmnmmooopqqrrqpom.................oqtqrvvsrqpnk.
(PID.TID 0000.0001)     31 .....................................lnpppoooooqqqrrrrrqppn...............nnsuutttsqonnl..
(PID.TID 0000.0001)     30 ....................................qrttttstsqrssssrrrqooon.............opqqsttusqqommlk..
(PID.TID 0000.0001)     29 ..................................kmqsuwuttvutrrrrrrpoonmmmm............oppoooonmmmlkjji..
(PID.TID 0000.0001)     28 ................................iknmnnprqppqqpoonnoonlllkjjll..........klkkkjkkjiijihihi..
(PID.TID 0000.0001)     27 ...............j...............gghiihijllklllllmljjllkjjihiijk....iij..jkjjkijjhgghhgg....
(PID.TID 0000.0001)     26 ...............ij............faceeeefghhhhiiijjiihhiiihhhghhhiji..ijefgijiiihhihgffffe....
(PID.TID 0000.0001)     25 ...............hhe....ii....gd-bcbcdefedegeffghgfffggeeffdfgfhiih....ffgjhhgfggffcffdd....
(PID.TID 0000.0001)     24 .............hfegef..egi....ef..ebcdedcbcdddefggeeeefedfeddeegggiihh..gdghgfeffeeeffgh....
(PID.TID 0000.0001)     23 .............ffeeef..ggg....df...gegfeedceeffgfhgggghhghgfeffggghhfff.....fgfggddfghil....
(PID.TID 0000.0001)     22 j............gfedeghiihh....g..kjjghgfhgffghgigghihhjjihhghhhjjiiigghj.......ghdfhihhjiiij
(PID.TID 0000.0001)     21 ifi.........fghghgghijiih......ijkiihiihhhhhhjheijhgjigjihhfhjjiiihhik.........ggiihhhijik
(PID.TID 0000.0001)     20 hfi........hhhijihhiijjig.........ihijjihihijhigikhhjigijigfijihhhgiik..........ghhhhhiihk
(PID.TID 0000.0001)     19 gfg........kjikliggiiijhgfj....ji......jiijijhjhijhhjjhijiggiihghhfghj............hhgghhjj
(PID.TID 0000.0001)     18 gfg........kkihlggeffgihggihhjkji....ikjiijkkijijjhhijijihghhghghgfehji...........hhhgihhi
(PID.TID 0000.0001)     17 ggh..........ffhegeceehggggijij......hihiiiiihhghihhhiiiiffggggghfediki..........iihghigeg
(PID.TID 0000.0001)     16 ggg.......i..ggffhadhfgggfgiji........hhhhhhhhhhhihhhijhhfghhgfhhfgghjij.........higghhgfg
(PID.TID 0000.0001)     15 gfgg.....ij..jjijl-fnjegghjhh..........hihhhgiiiiighijkhggijffhjjgggghhhh.......ihjhghiggg
(PID.TID 0000.0001)     14 gggd.....ghfgllkljekqkfffijfh..........iihiihjjjiijljkkjhjkiejljigghghfjh......iiikjhiigih
(PID.TID 0000.0001)     13 ijhe.....gikljjjjjimlifgjkjfd..........kkjlkjkkjjjkljjkllmljiooijjjkjjhki.....ijjillijjjlk
(PID.TID 0000.0001)     12 nlkhgdbhlloolhijjkjkjjkkmmjhgijiih.....mmlmkjkjjjlkjijklllmmmpmjkmmlljjk......nlkjmmlnmnon
(PID.TID 0000.0001)     11 ppoljiorsrssrmopopppqoopponnmkllkkj...mnmmm..llklmjjjkkjlllnonlkmponmllj.....lqnooppoppopp
(PID.TID 0000.0001)     10 ssrqrrvvvvuwwsvxyzyxvtutttsrqooomlkk..mmnnl..lllkjjjklkjlmmnonmmprrpnmmk...hinrrrqrsrstsss
(PID.TID 0000.0001)      9 vvuuwwwvuustuvwz+yxwvvvvwvuuusqqqnnqplmoon..klllkmmmmnmmooqrppooqrqpnoml..jlnprsstuvuuwwuu
(PID.TID 0000.0001)      8 tuwxwwvttsrrttturssstvvwvvuvusstttuxvsssrponnnnoqsssttssuutusrqpqrqpppom..lmoqrsttuuttuuts
(PID.TID 0000.0001)      7 qrssqqqpppqpqpppppqrrqqrrrrqqqrstuwywuvvtrpppppruwvxyxwwwussrqqqqrqrqqqqqnnoqrrqpoqpopqqpp
(PID.TID 0000.0001)      6 mmlkkkklmmmmnnmmmnonmlmoonnnoopqrqqrpprrrqrssrrtuutuutsrqoopqpppprrrrrsrrrrrrqonmmmlmnoonm
(PID.TID 0000.0001)      5 jiihiijjkllkkkjjkllkjjkkkjjklmmmmmmmlmnnnoqrrrrssqqpomlkllnppooopqqqqrsssrpnmlllkkkkkkllkj
(PID.TID 0000.0001)      4 hgggghhiiihhhhhhijiiiihhgghhiiiiijjjjjjjjklmmmnnmlkjihhijkmnnmmmnnnnnooomj...jjjjiiiiiihhh
(PID.TID 0000.0001)      3 ggffgggghh.............................hhiijiijiihhgggggijjkkkjjjjjjjjjii...ijiihhhhhhgghg
(PID.TID 0000.0001)      2 ...........................................iiiiihhggggghhiiiiihh...hhh......iiihhhhhhii...
(PID.TID 0000.0001)      1 ..........................................................................................
(PID.TID 0000.0001) // =======================================================
(PID.TID 0000.0001) // END OF FIELD                                          =
(PID.TID 0000.0001) // =======================================================
(PID.TID 0000.0001) 
(PID.TID 0000.0001) // =======================================================
(PID.TID 0000.0001) // Field Current vVel   at iteration         10
(PID.TID 0000.0001) // CMIN =         -1.036454899521015E-01
(PID.TID 0000.0001) // CMAX =          9.115122410178451E-02
(PID.TID 0000.0001) // CINT =          7.214693113106890E-03
(PID.TID 0000.0001) // SYMBOLS (CMIN->CMAX): -abcdefghijklmnopqrstuvwxyz+
(PID.TID 0000.0001) //                  0.0: .
(PID.TID 0000.0001) // RANGE I (Lo:Hi:Step):(     1:    90:     1)
(PID.TID 0000.0001) // RANGE J (Lo:Hi:Step):(    40:     1:    -1)
(PID.TID 0000.0001) // RANGE K (Lo:Hi:Step):(   1:   1:   1)
(PID.TID 0000.0001) // =======================================================
(PID.TID 0000.0001) K =   1
(PID.TID 0000.0001)                I=10      I=20      I=30      I=40      I=50      I=60      I=70      I=80      I=90
(PID.TID 0000.0001) |--J--|123456789|123456789|123456789|123456789|123456789|123456789|123456789|123456789|123456789|
(PID.TID 0000.0001)     40 moqsr.oooooooo...oo..................................................................lkkkl
(PID.TID 0000.0001)     39 oqrrqpoonoopp...........................................................nmmn........lllmnn
(PID.TID 0000.0001)     38 ppp.......................................................................lln......ml.oopo
(PID.TID 0000.0001)     37 op...................................................................nn...kkm...moqrq.opoo
(PID.TID 0000.0001)     36 no.........................................prrq....................mnn....ighk.kmopqqomnon
(PID.TID 0000.0001)     35 ...................................llnn..pppqqpo...lnqtu...................jiiklmnppnmmq..
(PID.TID 0000.0001)     34 ....................................lkl.nnmlnppo.llnprtus...................ihknnoqrqonn..
(PID.TID 0000.0001)     33 ....................................liiiklllnqpoppopqsssrqo.................nlnqqpqqnkjkm.
(PID.TID 0000.0001)     32 ....................................khhjkklmoqnnopoprsssroo................rpprrnlmljiil..
(PID.TID 0000.0001)     31 ....................................ppommnollnmnoppqrssspnn..............pvxvwvspoonmmmo..
(PID.TID 0000.0001)     30 ...................................wvtrqqrqooonopqpprssromm............ttwwsomlmnonnnnmo..
(PID.TID 0000.0001)     29 .................................ustqppppqonnoonnooprrrpomlm...........nonmkklmnonnonnoo..
(PID.TID 0000.0001)     28 ...............................monnnmmklmonnnoonnoqrsrqponlll.........onmnmmmmlmmlmmlm....
(PID.TID 0000.0001)     27 ..............nm..............monlmnnmmorrpooonoqqpqrqponnlklm...nnot.qqqqqrrrrqppppon....
(PID.TID 0000.0001)     26 ..............omn...........kkomklmmmmorqopponmmnllmmnonnnmlnnoo....sqqpopoopnnnopnlml....
(PID.TID 0000.0001)     25 ..............knoo...nnm...mmq.geghhhijjjjjjihhhhiihhhihhhjmnnpqo....mjjljkkjjkmolkkif....
(PID.TID 0000.0001)     24 ............pqppsts.ollm...jnq..cbccdeeeghgfghkmmmkjihgghijkjjjihikn.....hkjjkknnllkjj....
(PID.TID 0000.0001)     23 ............nklnoom.oljk...no...jkllnnnnnnnoppqtutsttssuvvtsrpnmmnooo.......npqrponorv....
(PID.TID 0000.0001)     22 p...........moonjhggghjl......oqrrrsrqqqpopqppoqqprsrtusqpoqqqpqqrpnmm........pnonpqrtrpoo
(PID.TID 0000.0001)     21 nlk........mmnmkkkkklmnpp......n.nmoononnmnnnppnonnnnooqononmlllmnonll.........kmoponnmnnl
(PID.TID 0000.0001)     20 mln.......mlkjjhikmnmooon......o......qpoommmnonoqqrsrqqrrrppqqqpoprsr...........pppppppml
(PID.TID 0000.0001)     19 nmn.......rssrtqqopstutrpnm...non.....oonnmllkkkklmnpppopqrqqrrqpompqp...........pponnlmpq
(PID.TID 0000.0001)     18 qnm.......r.xyy+yurrstutrprpmnp.....nnpqqpooonnoonlmoqqqpqrrsstsrrrrrqn..........pppppoors
(PID.TID 0000.0001)     17 srp.......o.wvtvusvrlkonmnoonn.......oonopqqrrpoponmnnmopppqqqsrrrompqo.........kmnqrstsrs
(PID.TID 0000.0001)     16 sts......rn.qpnnoknsnhlopnjlm.........nmkkllmmmmmmmmmmllnoonpqqpnooopssq........kmnnqsssrs
(PID.TID 0000.0001)     15 suur....oss.hjhfggdjkgfjmoonj.........mnljiihiiiijihikmklmmnqqnoooqpquyuq......ljkmkloqssr
(PID.TID 0000.0001)     14 stvu....mprlgiiijiegmmlnopqqq.........kllkihgghigffedghgfgijmonopnppoorsn.....mlklmklnprsr
(PID.TID 0000.0001)     13 prss....jlmlklonnnlmnnllnoqqq.........jjjjkjiijjjjjjihhgfghefjllnmlnopqr.....omlklmlkkklop
(PID.TID 0000.0001)     12 opoommiecflomnqqqqqrnmnnpqpnmnooqp....kkllm.mmmmmlklllmmljkljkkmppmmnprr.....jkjijljklklmn
(PID.TID 0000.0001)     11 nnnlfegfd-bebcjmmkjmnmmnooonmmnmmop..kmnnnn.klmnpqponnoqronoomkmqrpmmoqo....fjmjggkjjlkkmm
(PID.TID 0000.0001)     10 nnnnljjkkhhjhbdhiihiknoonmnnmlnpoput.lnonm..jknprsrqqonptvurqomnqssqppon..kigjoonkkjjllijm
(PID.TID 0000.0001)      9 lmmmmlklmljnpommoonlkmpqpnmlkiikjimpomnpon.omkmmnpqqrqnnnptsqpnpstssrqon.omnmlnoonmkjmqnii
(PID.TID 0000.0001)      8 nnnmnnlkmnllmprrppqplkmoooonkiiiiijieegikmpqommooljjjjkmljopnmlmpqpqqqom.rprtsqqqqollnrspn
(PID.TID 0000.0001)      7 ppoooonllmoonmnoqqrrqooonnnnnmlkjlqphfgfehmppnnqrqonkgfikjnqolklnonnoppqusonpqpppqpmmnqrqp
(PID.TID 0000.0001)      6 ppnmmmmnmlkmnmllnppponnnljjklllmkknqomkhfehknnoqqqrrpliihhkonljklmlllmnnpqomnoonnonmmnoooo
(PID.TID 0000.0001)      5 nmllkkklmlklllllmmmmmmmlljjkllllllklmnmlkiijjmpqpoppomlkjjlnnlklmnmmmmnnmo..mnonnnnnnnnnnn
(PID.TID 0000.0001)      4 lkkllkkkkl............................nmnnnmlmoppoonmkklmnnnnmlllmmmmnnmm...oonnnnnnnnmlll
(PID.TID 0000.0001)      3 ..........................................nmmllmmmmmlklnppoonmlm..nmmn.....nnnmllmmnnmm...
(PID.TID 0000.0001)      2 ..........................................................................................
(PID.TID 0000.0001)      1 ..........................................................................................
(PID.TID 0000.0001) // =======================================================
(PID.TID 0000.0001) // END OF FIELD                                          =
(PID.TID 0000.0001) // =======================================================
(PID.TID 0000.0001) 
(PID.TID 0000.0001) // =======================================================
(PID.TID 0000.0001) // Field Current theta  at iteration         10
(PID.TID 0000.0001) // CMIN =         -1.914817205492582E+00
(PID.TID 0000.0001) // CMAX =          2.982017839544871E+01
(PID.TID 0000.0001) // CINT =          1.175370207442270E+00
(PID.TID 0000.0001) // SYMBOLS (CMIN->CMAX): -abcdefghijklmnopqrstuvwxyz+
(PID.TID 0000.0001) //                  0.0: .
(PID.TID 0000.0001) // RANGE I (Lo:Hi:Step):(     1:    90:     1)
(PID.TID 0000.0001) // RANGE J (Lo:Hi:Step):(    40:     1:    -1)
(PID.TID 0000.0001) // RANGE K (Lo:Hi:Step):(   1:   1:   1)
(PID.TID 0000.0001) // =======================================================
(PID.TID 0000.0001) K =   1
(PID.TID 0000.0001)                I=10      I=20      I=30      I=40      I=50      I=60      I=70      I=80      I=90
(PID.TID 0000.0001) |--J--|123456789|123456789|123456789|123456789|123456789|123456789|123456789|123456789|123456789|
(PID.TID 0000.0001)     40 abbcd.baa----abcddd..................................................................bbbaa
(PID.TID 0000.0001)     39 bccddccbbaaaa-...ed.....................................................----........bbbaab
(PID.TID 0000.0001)     38 effffeddddccc...........................................................-----......cabbbde
(PID.TID 0000.0001)     37 ggh..................................................................bc...bab...edddf.deef
(PID.TID 0000.0001)     36 hh.........................................dcba....................dcccbabbccd.eefgghhhhhh
(PID.TID 0000.0001)     35 gg.................................aaaa..ccdddcc...ffffg...........bbb....ccdeeeffghijjiih
(PID.TID 0000.0001)     34 ...................................a-aa.cdddddde.eefffghh..................cbcefgghjjkjj..
(PID.TID 0000.0001)     33 ....................................-bbccddeeeeefffffgghhhi.................bceijjkkllkkk.
(PID.TID 0000.0001)     32 ....................................bcdddeffffgghhhhhiiiiij................cccgkmmmmmlllk.
(PID.TID 0000.0001)     31 ....................................fghhhhiiiijjjjjkkkkllkk..............hjjjjmoooonnmmm..
(PID.TID 0000.0001)     30 ...................................mlmmmmmmmmmmmmmmmnnnnnml............mopqqqqqqqqppoooo..
(PID.TID 0000.0001)     29 .................................ppppppppppppoooooooppppponm...........rrrrrrrrrqqqqqppp..
(PID.TID 0000.0001)     28 ...............................prrrrrrrrrrrrrrrrrrrrrrrrqqpoo.........ttsssssssrrrrrrqqp..
(PID.TID 0000.0001)     27 ..............vv..............ssttstttttttttttttttttttssrrqqqq...sstu.uuuuuuuuttttsssr....
(PID.TID 0000.0001)     26 ..............vvu...........utuuuuvvvvwvvvvvvvvvvvvuuutttssrsstu.tuvwwwwvvvvvvvvuttssr....
(PID.TID 0000.0001)     25 ..............vvwx...xwx...uuvwwwxxxxxxxxxwwwwwwwwwvvvvuuuttuuvwx...xxxwwwwwwwwvvvutsq....
(PID.TID 0000.0001)     24 ............wwwwxyy.xxxx...wwx.yyyyyyyyxxxxxxxxwwwwwwwwwvvvwwwxxxwvw.xxwwwwwwwwwvvvutr....
(PID.TID 0000.0001)     23 ............xxxxyyz.xxyy...wxx..yyyyyyyyyyyxxxxxxxxxxxxwwwwxxxxwwwwww....wwxxxxwwwwvvu....
(PID.TID 0000.0001)     22 w...........xxyyyyyyyyyy...xx.yyzzyzzzzzzzzzzyyyyyyyyyxwwwxxxxwvvwwwxw......yyxxxxxxxxxxxw
(PID.TID 0000.0001)     21 xxx........xxxxyyzzyzzzz+.....zyzzzzzzz++zzzyyyyyyyyyxxwwvwwwwvvvvvvvu........yyyyyyyyyxxx
(PID.TID 0000.0001)     20 xww.......xyyyyxyyzzzzzz+......z.zzzzz++++zzzzzzyyyyxxxxwwwxwvvvvvvvut.........yyyyyxxxxwx
(PID.TID 0000.0001)     19 wvv.......yzyyxwwxyzzyzzzzz...zzz.....++++++z++z+zzzyyyyxxxxxwwvwwwwvu...........yyxxxwwww
(PID.TID 0000.0001)     18 uut.......zzzyyxxxyzyyzzzzzzzz+zz...z+z++++zz+++++++zzzyyyyxxwwwvvwvvut..........yyxxwvvwv
(PID.TID 0000.0001)     17 uus.......z.zyyyyyxyzyyyyyyyyzz.....zzzzzzzzzzzzzzzzzzyyyyyxxwwvuuvvuuu.........yyyxxwuuvu
(PID.TID 0000.0001)     16 uts......yy.zyyyyxxxxxxxwxxxxy.......yyyyyyyyyyyyyyyyyyyyyyyxxwwvvuuutts........yyyyxwvuuu
(PID.TID 0000.0001)     15 utsr....xxx.xxxxxwwwwvwwvvwww.........xxxxxxxxxxxxxxxxxxxyyyxwwwvvuuttsss......wxxxxxxwvuu
(PID.TID 0000.0001)     14 ttsq....xyxxwxwvwwwvutuuuuuuu.........wwwwwwwwwwwwwwwwwwwxxwwwwvvvuutssrr.....vwwwwwwwvvvu
(PID.TID 0000.0001)     13 ttts....wxwvvvutuuvuuuttssttt.........vvvvuuuuuuuuttuuvuuvvwwwvuuututssrr....vvvvvvvvvvvuu
(PID.TID 0000.0001)     12 sssssstttutsstsssrrrstsrrrsssqqrrq....uuutsssssrrrrrrrrrrstuttsstssssrrp.....uvuuttttttstt
(PID.TID 0000.0001)     11 qpprssssrrrqqrqqqpoopqqoppppppppppq..ttsrrr.rqqqqqqqqqqqqqrrpppqrqrrrqqp....prtsrqqrrqqpqq
(PID.TID 0000.0001)     10 mllnopponnoonoooonnmnnmmmmllmnnnnooo.qrqqqq.pppppppooooooooonnoooooooooo..nnopponnnnoonnmm
(PID.TID 0000.0001)      9 iihijjiiiiiiijjjiijjjjiiiiiiijkklmnmlnoono.mmmnnoonnnnnnnnmlllmmmlllmmmm.mmmmmmllkjjkkjiii
(PID.TID 0000.0001)      8 ffffffffeefghggffffghhffgggggiijjjkkjklllllkkllllkllllklkkjjijkkkkjjjkkj.kkkjjiihhggggfeee
(PID.TID 0000.0001)      7 ccddddeeeedeffeeeeeeedddefffffggggghhhiijjjijjjjiiihhhhhiiihhhhiiiiiiiiiiiiihhgfeeeddddddc
(PID.TID 0000.0001)      6 bbbcdddddddddddddddddddeddddcdeeeeeeeffgghhhghiihfeedeeefffffefggggghhhhhhggfeedccccccbcbb
(PID.TID 0000.0001)      5 bcccccccccddddddddcccdddcccdddddddddddddeeeeeeeeeccbbccccddddddeeeeffeeeeeeddcccbbbbbbbbbb
(PID.TID 0000.0001)      4 cccccbbbbbbbbbccccccbbbabbabbbbcbbbbbbbcccccbbbbbbbbbbbbbbbbcccccccccccccc..aaaabbbbbbbbbb
(PID.TID 0000.0001)      3 bbbbaaa-aa............................bbaabbaaaaabbbbbaaaaaaaabaaaaaaaaab..aaaaaaabbbbbbab
(PID.TID 0000.0001)      2 ..........................................bbbbbaaaaaaaaa-aa--aaa..aaaa.....aaaaaaaabbba...
(PID.TID 0000.0001)      1 ..........................................................................................
(PID.TID 0000.0001) // =======================================================
(PID.TID 0000.0001) // END OF FIELD                                          =
(PID.TID 0000.0001) // =======================================================
(PID.TID 0000.0001) 
(PID.TID 0000.0001) // =======================================================
(PID.TID 0000.0001) // Field Current etaN   at iteration         10
(PID.TID 0000.0001) // CMIN =         -1.374578466065020E+00
(PID.TID 0000.0001) // CMAX =          8.653500481614721E-01
(PID.TID 0000.0001) // CINT =          8.296031534172192E-02
(PID.TID 0000.0001) // SYMBOLS (CMIN->CMAX): -abcdefghijklmnopqrstuvwxyz+
(PID.TID 0000.0001) //                  0.0: .
(PID.TID 0000.0001) // RANGE I (Lo:Hi:Step):(    -1:    92:     1)
(PID.TID 0000.0001) // RANGE J (Lo:Hi:Step):(    42:    -1:    -1)
(PID.TID 0000.0001) // RANGE K (Lo:Hi:Step):(   1:   1:   1)
(PID.TID 0000.0001) // =======================================================
(PID.TID 0000.0001) K =   1
(PID.TID 0000.0001)                I=8       I=18      I=28      I=38      I=48      I=58      I=68      I=78      I=88
(PID.TID 0000.0001) |--J--|101234567|901234567|901234567|901234567|901234567|901234567|901234567|901234567|901234567|9012
(PID.TID 0000.0001)     42 ............................................----aaaabbbccccbbaaaaa..bbbb.....----aaaaaaaa.....
(PID.TID 0000.0001)     41 ..............................................................................................
(PID.TID 0000.0001)     40 hhggggh.iiihhhhhggggg..................................................................hhhhhgg
(PID.TID 0000.0001)     39 hggggghiiihhhhhh...ff.....................................................hhhh........ihhhhggg
(PID.TID 0000.0001)     38 hhhiiiiiiiihhhi...........................................................hhhhh......ihhhhhhhi
(PID.TID 0000.0001)     37 hiiij..................................................................jj...hgg...gffgf.hhhiii
(PID.TID 0000.0001)     36 iijj.........................................mmnn....................jkkkjjigfff.feeffghhhiijj
(PID.TID 0000.0001)     35 ijkk.................................nnnn..mmmmmnn...nnnoo...........kll....gfeeddeeefghhhijkk
(PID.TID 0000.0001)     34 .....................................nmmm.mmmmmmmm.onmmmnop..................ggfeeeefghhij....
(PID.TID 0000.0001)     33 k.....................................nnmmmmmmmmmnnnnnnnooppp.................ggfghhhijjjjk...
(PID.TID 0000.0001)     32 k.....................................nnmmmmnnnnooooooooppppp................iiihikkkkkkkjk...
(PID.TID 0000.0001)     31 ......................................nnnnnnoooppppppppqqqqqp..............jjkkkkkllklkkkj....
(PID.TID 0000.0001)     30 .....................................qqqqqqqqqqqrrrrrrrrrssrq............mlmmoooonnmmmllkk....
(PID.TID 0000.0001)     29 ...................................uvvvvvutuutttttttssssssssrq...........ppppqppooonnmmlll....
(PID.TID 0000.0001)     28 .................................xxxxyxxxwwwwvvvuuuuttttttsssrq.........rqqqqpppoooonmmmml....
(PID.TID 0000.0001)     27 ................qq..............zyyyyyyyyxxxxwwwvvuvvuuutttssrrq...utrq.srrqqqpponnnnmml......
(PID.TID 0000.0001)     26 ................rqq...........yyzzzzzzzzyyyyyxxxwwvvvvvuutttsrrrrr.utrsttssrrqqqpoonnnmm......
(PID.TID 0000.0001)     25 ................rrrs...vvv...yyyzzzzzzzyyzzyyyyxwwvvvvuuutttsssssss...ttttssrrqqpooonnmm......
(PID.TID 0000.0001)     24 ..............rrrrstu.vvvv...zzz.zyyyyxxxyyyxxxwvvuuuutttsssssssstssss.ttssrqqqppooonnml......
(PID.TID 0000.0001)     23 ..............rrsstvv.vvvv...zz+..wwwwwwwwwwwwwvvvuuuttssrrrrrrssrrrrss....pqqppoooonnmm......
(PID.TID 0000.0001)     22 poo...........sssttvvvvvuu...++.xwwvvvvwwwwxwwwwwwvvvuuttssssssssrrrrsts......ppppppoooooopoo.
(PID.TID 0000.0001)     21 popqq........ssssttuuuuuuuv.....xxwwwwwwwwwxxxxwwwwwvvvuuttssttssrrrssss........qqqppppppppopq
(PID.TID 0000.0001)     20 ooopp.......tsstssttuuuuuuv......x.wwwxwwwxxxxxxwxwwwwvuuuttstsrrrrrrrrr.........qqppppppoooop
(PID.TID 0000.0001)     19 nnnoo.......ttsssrrttuuuuvvww...xxx.....xxxxxxxxxxxwwwwvvvuttttsrrrrrssr...........qqpppponnno
(PID.TID 0000.0001)     18 nnnno.......uutttsstuvvvvvvwwwwxwxx...yyxxxxxxwwwwwwwxwwvvuuuutsssrrrssrq..........qqppponnnnn
(PID.TID 0000.0001)     17 onnnn.......v.wwwvvvvwwxwwwwwwwww.....yyxxxxxxwwwwxwwwwwwvvvvuuttssrsssrq.........rrqqppnnonnn
(PID.TID 0000.0001)     16 ooonn......ww.yxxxwwxxwwwwvvvvvw.......yxxxxxxxxxxxwwwwwwvvvvvuuutssssrqqp........rrrrqqpoooon
(PID.TID 0000.0001)     15 ppponn....xww.yyxxwwxwwvvvvuuuu.........xwwwwwxwwwwwwwwwvvwwwvvuutssssrrqpp......rrrrrrrqqpppo
(PID.TID 0000.0001)     14 qqppoo....xxxwxwwvvvvvuttuutsss.........wwvvvvvvvvvvvvvvvvvwvvvvutttsssrrqq.....rrrrrrrrrrqqpp
(PID.TID 0000.0001)     13 rqqqpp....xxxwvvuuutuuttuutssss.........vvvuutttttttsstttuuuuvvvtttttssrrqq....rrrrrrrrrssrqqq
(PID.TID 0000.0001)     12 rqqqpppruvwwvuuuuuttttttttsssssrrrqq....uuttssssssrrrrrrsrrssstssttssrrrqp.....srqqrqqrrrrrqqq
(PID.TID 0000.0001)     11 ppppppqssssttttuuutttsssssrrrrqrrqrqq..tsssrr.rrrrqqqqrrrrrrrrrrrssrqqqqpp....pppppppppppppppp
(PID.TID 0000.0001)     10 nnnnnnnooonoopprrrrqqqqqppqppppppppqqp.rrrrrr.pqqqqqqqqqrrrqqqppqrrqpppppp..ikmnnmmmmmnnnnnnnn
(PID.TID 0000.0001)      9 jkkkkkkkjjjjklllllllllmmmmmmmmmnoopqqpopqppp.nopqqqqqqqqqrrrqpoopppoononoo.hijkkkkkjjjjkjijkkk
(PID.TID 0000.0001)      8 efgggggffggghiiihhhhhiijjjiiijjkllmmnnnooooonnnnoopppppoooooonnnnoonnnnmmn.hhhhhhhggffggfeefgg
(PID.TID 0000.0001)      7 cccccccccdeeeeeffffffeeeffffffgghhiihghijkklllllmmlkkkjkkkkkkkkkllllllllkkihhhhgfeeddddeddcccc
(PID.TID 0000.0001)      6 bbaaaabbbcccdddddddddccdddcddeeeeeeeedddefgijjiiiihgfeddefghiihhiijjjijiiihgfeedcccccccccbbbaa
(PID.TID 0000.0001)      5 aaaaaaabbbbbbbbbbcccbbbbbbabbcccbbbbcccbbccdefffeedccbbbbcdeffeefffffffffeedcbbbbbbaaaaaaaaaaa
(PID.TID 0000.0001)      4 aa--aaaaaaaabbbbbbbbbbbbbabbbbbbbbbaaaaaaaabbbbbbbaaaaabbccccccccddddccccbbc..aaaaaaaaa---aa--
(PID.TID 0000.0001)      3 aaaaaaaaaaaa............................aaaaaaaaaaaaaaabbbbbbbbabbbbbbbbbbb..aaa-aaaaaaaaaaaaa
(PID.TID 0000.0001)      2 ............................................----aaaabbbccccbbaaaaa..bbbb.....----aaaaaaaa.....
(PID.TID 0000.0001)      1 ..............................................................................................
(PID.TID 0000.0001)      0 hhggggh.iiihhhhhggggg..................................................................hhhhhgg
(PID.TID 0000.0001)     -1 hggggghiiihhhhhh...ff.....................................................hhhh........ihhhhggg
(PID.TID 0000.0001) // =======================================================
(PID.TID 0000.0001) // END OF FIELD                                          =
(PID.TID 0000.0001) // =======================================================
(PID.TID 0000.0001) 
(PID.TID 0000.0001)  MDS_WRITE_FIELD: it,rec,kS,kL,kH=      10     1  15   1  15 file=U.0000000010
(PID.TID 0000.0001)  MDS_WRITE_FIELD: it,rec,kS,kL,kH=      10     1  15   1  15 file=V.0000000010
(PID.TID 0000.0001)  MDS_WRITE_FIELD: it,rec,kS,kL,kH=      10     1  15   1  15 file=T.0000000010
(PID.TID 0000.0001)  MDS_WRITE_FIELD: it,rec,kS,kL,kH=      10     1  15   1  15 file=S.0000000010
(PID.TID 0000.0001)  MDS_WRITE_FIELD: it,rec,kS,kL,kH=      10     1   1   1   1 file=Eta.0000000010
(PID.TID 0000.0001)  MDS_WRITE_FIELD: it,rec,kS,kL,kH=      10     1  15   1  15 file=W.0000000010
(PID.TID 0000.0001)  MDS_WRITE_FIELD: it,rec,kS,kL,kH=      10     1  15   1  15 file=PH.0000000010
(PID.TID 0000.0001)  MDS_WRITE_FIELD: it,rec,kS,kL,kH=      10     1   1   1   1 file=PHL.0000000010
(PID.TID 0000.0001)  MDS_WRITE_FIELD: it,rec,kS,kL,kH=      10     1   1   1   1 file=ETAtave.0000000010
(PID.TID 0000.0001)  MDS_WRITE_FIELD: it,rec,kS,kL,kH=      10     1  15   1  15 file=Ttave.0000000010
(PID.TID 0000.0001)  MDS_WRITE_FIELD: it,rec,kS,kL,kH=      10     1  15   1  15 file=Stave.0000000010
(PID.TID 0000.0001)  MDS_WRITE_FIELD: it,rec,kS,kL,kH=      10     1  15   1  15 file=uVeltave.0000000010
(PID.TID 0000.0001)  MDS_WRITE_FIELD: it,rec,kS,kL,kH=      10     1  15   1  15 file=vVeltave.0000000010
(PID.TID 0000.0001)  MDS_WRITE_FIELD: it,rec,kS,kL,kH=      10     1  15   1  15 file=wVeltave.0000000010
(PID.TID 0000.0001)  MDS_WRITE_FIELD: it,rec,kS,kL,kH=      10     1   1   1   1 file=Eta2tave.0000000010
(PID.TID 0000.0001)  MDS_WRITE_FIELD: it,rec,kS,kL,kH=      10     1  15   1  15 file=UTtave.0000000010
(PID.TID 0000.0001)  MDS_WRITE_FIELD: it,rec,kS,kL,kH=      10     1  15   1  15 file=VTtave.0000000010
(PID.TID 0000.0001)  MDS_WRITE_FIELD: it,rec,kS,kL,kH=      10     1  15   1  15 file=WTtave.0000000010
(PID.TID 0000.0001)  MDS_WRITE_FIELD: it,rec,kS,kL,kH=      10     1  15   1  15 file=UStave.0000000010
(PID.TID 0000.0001)  MDS_WRITE_FIELD: it,rec,kS,kL,kH=      10     1  15   1  15 file=VStave.0000000010
(PID.TID 0000.0001)  MDS_WRITE_FIELD: it,rec,kS,kL,kH=      10     1  15   1  15 file=WStave.0000000010
(PID.TID 0000.0001)  MDS_WRITE_FIELD: it,rec,kS,kL,kH=      10     1  15   1  15 file=TTtave.0000000010
(PID.TID 0000.0001)  MDS_WRITE_FIELD: it,rec,kS,kL,kH=      10     1  15   1  15 file=UUtave.0000000010
(PID.TID 0000.0001)  MDS_WRITE_FIELD: it,rec,kS,kL,kH=      10     1  15   1  15 file=VVtave.0000000010
(PID.TID 0000.0001)  MDS_WRITE_FIELD: it,rec,kS,kL,kH=      10     1  15   1  15 file=UVtave.0000000010
(PID.TID 0000.0001)  MDS_WRITE_FIELD: it,rec,kS,kL,kH=      10     1  15   1  15 file=Tdiftave.0000000010
(PID.TID 0000.0001)  MDS_WRITE_FIELD: it,rec,kS,kL,kH=      10     1  15   1  15 file=PhHytave.0000000010
(PID.TID 0000.0001)  MDS_WRITE_FIELD: it,rec,kS,kL,kH=      10     1   1   1   1 file=PHLtave.0000000010
(PID.TID 0000.0001)  MDS_WRITE_FIELD: it,rec,kS,kL,kH=      10     1   1   1   1 file=uFluxtave.0000000010
(PID.TID 0000.0001)  MDS_WRITE_FIELD: it,rec,kS,kL,kH=      10     1   1   1   1 file=vFluxtave.0000000010
(PID.TID 0000.0001)  MDS_WRITE_FIELD: it,rec,kS,kL,kH=      10     1   1   1   1 file=tFluxtave.0000000010
(PID.TID 0000.0001)  MDS_WRITE_FIELD: it,rec,kS,kL,kH=      10     1   1   1   1 file=sFluxtave.0000000010
(PID.TID 0000.0001)  MDS_WRITE_FIELD: it,rec,kS,kL,kH=      10     1   1   1   1 file=PHL2tave.0000000010
(PID.TID 0000.0001)  MDS_WRITE_FIELD: it,rec,kS,kL,kH=      10     1  15   1  15 file=Convtave.0000000010
(PID.TID 0000.0001) // Time-average data written, t-step        10
(PID.TID 0000.0001) 
(PID.TID 0000.0001)  MDS_WRITE_FIELD: it,rec,kS,kL,kH=      10     1  15   1  15 file=GM_Kwx-T.0000000010
(PID.TID 0000.0001)  MDS_WRITE_FIELD: it,rec,kS,kL,kH=      10     1  15   1  15 file=GM_Kwy-T.0000000010
(PID.TID 0000.0001)  MDS_WRITE_FIELD: it,rec,kS,kL,kH=      10     1  15   1  15 file=GM_Kwz-T.0000000010
(PID.TID 0000.0001)  MDS_WRITE_FIELD: it,rec,kS,kL,kH=      10     1  15   1  15 file=pickup_cd.0000000010
(PID.TID 0000.0001)  MDS_WRITE_FIELD: it,rec,kS,kL,kH=      10     2  15   1  15 file=pickup_cd.0000000010
(PID.TID 0000.0001)  MDS_WRITE_FIELD: it,rec,kS,kL,kH=      10     3  15   1  15 file=pickup_cd.0000000010
(PID.TID 0000.0001)  MDS_WRITE_FIELD: it,rec,kS,kL,kH=      10     4  15   1  15 file=pickup_cd.0000000010
(PID.TID 0000.0001)  MDS_WRITE_FIELD: it,rec,kS,kL,kH=      10    61   1   1   1 file=pickup_cd.0000000010
(PID.TID 0000.0001)  MDS_WRITE_FIELD: it,rec,kS,kL,kH=      10    -1  15   1  15 file=pickup.0000000010
(PID.TID 0000.0001)  MDS_WRITE_FIELD: it,rec,kS,kL,kH=      10    -2  15   1  15 file=pickup.0000000010
(PID.TID 0000.0001)  MDS_WRITE_FIELD: it,rec,kS,kL,kH=      10    -3  15   1  15 file=pickup.0000000010
(PID.TID 0000.0001)  MDS_WRITE_FIELD: it,rec,kS,kL,kH=      10    -4  15   1  15 file=pickup.0000000010
(PID.TID 0000.0001)  MDS_WRITE_FIELD: it,rec,kS,kL,kH=      10    -5  15   1  15 file=pickup.0000000010
(PID.TID 0000.0001)  MDS_WRITE_FIELD: it,rec,kS,kL,kH=      10    -6  15   1  15 file=pickup.0000000010
(PID.TID 0000.0001)  MDS_WRITE_FIELD: it,rec,kS,kL,kH=      10    -7  15   1  15 file=pickup.0000000010
(PID.TID 0000.0001)  MDS_WRITE_FIELD: it,rec,kS,kL,kH=      10    -8  15   1  15 file=pickup.0000000010
(PID.TID 0000.0001)  MDS_WRITE_FIELD: it,rec,kS,kL,kH=      10  -121   1   1   1 file=pickup.0000000010
(PID.TID 0000.0001)  MDS_WRITE_FIELD: it,rec,kS,kL,kH=      10  -122   1   1   1 file=pickup.0000000010
(PID.TID 0000.0001)  MDS_WRITE_FIELD: it,rec,kS,kL,kH=      10  -123   1   1   1 file=pickup.0000000010
(PID.TID 0000.0001) %CHECKPOINT        10 0000000010
(PID.TID 0000.0001)  MDS_WRITE_FIELD: it,rec,kS,kL,kH=      10     1   1   1   1 file=ETAN_forecast.0000000010
(PID.TID 0000.0001)  MDS_WRITE_FIELD: it,rec,kS,kL,kH=      10     1  15   1  15 file=THETA_forecast.0000000010
(PID.TID 0000.0001)  MDS_WRITE_FIELD: it,rec,kS,kL,kH=      10     1  15   1  15 file=SALT_forecast.0000000010
(PID.TID 0000.0001)  MDS_WRITE_FIELD: it,rec,kS,kL,kH=      10     1  15   1  15 file=UVEL_forecast.0000000010
(PID.TID 0000.0001)  MDS_WRITE_FIELD: it,rec,kS,kL,kH=      10     1  15   1  15 file=VVEL_forecast.0000000010
(PID.TID 0000.0001)  MDS_WRITE_FIELD: it,rec,kS,kL,kH=      10     1   1   1   1 file=ETAN_analysis.0000000010
(PID.TID 0000.0001)  MDS_WRITE_FIELD: it,rec,kS,kL,kH=      10     1  15   1  15 file=THETA_analysis.0000000010
(PID.TID 0000.0001)  MDS_WRITE_FIELD: it,rec,kS,kL,kH=      10     1  15   1  15 file=SALT_analysis.0000000010
(PID.TID 0000.0001)  MDS_WRITE_FIELD: it,rec,kS,kL,kH=      10     1  15   1  15 file=UVEL_analysis.0000000010
(PID.TID 0000.0001)  MDS_WRITE_FIELD: it,rec,kS,kL,kH=      10     1  15   1  15 file=VVEL_analysis.0000000010
 EXTERNAL_FIELDS_LOAD,        10 : iP,iLd,i0,i1=   12    1   12    1 ; Wght=  0.1666666667  0.8333333333
 EXTERNAL_FIELDS_LOAD: (fu0,1),fu,fv= -4.5368E-02 -3.5633E-02 -3.7255E-02 -5.9422E-02
 EXTERNAL_FIELDS_LOAD: SST,SSS,Q,E-P=  6.5667E-01  3.4598E+01  2.6555E+02  1.1372E-05
DEBUG_STATS_RL:          Uvel (THERMODYNAMICS)  min= -8.62868616340473E-02
DEBUG_STATS_RL:          Uvel (THERMODYNAMICS)  max=  1.72075842651250E-01
DEBUG_STATS_RL:          Uvel (THERMODYNAMICS) mean=  5.02883963362242E-03
DEBUG_STATS_RL:          Uvel (THERMODYNAMICS) S.D.=  2.06253664235521E-02
DEBUG_STATS_RL:          Vvel (THERMODYNAMICS)  min= -1.16186878956570E-01
DEBUG_STATS_RL:          Vvel (THERMODYNAMICS)  max=  9.79426517355481E-02
DEBUG_STATS_RL:          Vvel (THERMODYNAMICS) mean= -1.67021376760090E-03
DEBUG_STATS_RL:          Vvel (THERMODYNAMICS) S.D.=  1.53303977634121E-02
DEBUG_STATS_RL:          Wvel (THERMODYNAMICS)  min= -1.95144239930637E-04
DEBUG_STATS_RL:          Wvel (THERMODYNAMICS)  max=  2.17798914352892E-04
DEBUG_STATS_RL:          Wvel (THERMODYNAMICS) mean= -5.84273469622012E-07
DEBUG_STATS_RL:          Wvel (THERMODYNAMICS) S.D.=  2.07598247371827E-05
DEBUG_STATS_RL:         Theta (THERMODYNAMICS)  min= -1.91509915009491E+00
DEBUG_STATS_RL:         Theta (THERMODYNAMICS)  max=  2.98253239100559E+01
DEBUG_STATS_RL:         Theta (THERMODYNAMICS) mean=  3.20513392687253E+00
DEBUG_STATS_RL:         Theta (THERMODYNAMICS) S.D.=  5.85205417553607E+00
DEBUG_STATS_RL:          Salt (THERMODYNAMICS)  min= -5.20417042793042E-18
DEBUG_STATS_RL:          Salt (THERMODYNAMICS)  max=  3.74365841761858E+01
DEBUG_STATS_RL:          Salt (THERMODYNAMICS) mean=  1.88451680410750E+01
DEBUG_STATS_RL:          Salt (THERMODYNAMICS) S.D.=  1.73006431861559E+01
DEBUG_STATS_RL:         GtNm1 (THERMODYNAMICS)  min= -3.40119383291279E-06
DEBUG_STATS_RL:         GtNm1 (THERMODYNAMICS)  max=  2.51845999954877E-06
DEBUG_STATS_RL:         GtNm1 (THERMODYNAMICS) mean=  2.35393423221810E-08
DEBUG_STATS_RL:         GtNm1 (THERMODYNAMICS) S.D.=  2.67128959759760E-07
DEBUG_STATS_RL:         GsNm1 (THERMODYNAMICS)  min= -5.00687788080050E-07
DEBUG_STATS_RL:         GsNm1 (THERMODYNAMICS)  max=  6.94962108862567E-07
DEBUG_STATS_RL:         GsNm1 (THERMODYNAMICS) mean=  3.18216074827560E-10
DEBUG_STATS_RL:         GsNm1 (THERMODYNAMICS) S.D.=  2.22908034691288E-08
DEBUG_STATS_RL:                EtaN (DYNAMICS)  min= -1.37457846606502E+00
DEBUG_STATS_RL:                EtaN (DYNAMICS)  max=  8.65350048161472E-01
DEBUG_STATS_RL:                EtaN (DYNAMICS) mean= -1.53096940083596E-01
DEBUG_STATS_RL:                EtaN (DYNAMICS) S.D.=  5.91727331041039E-01
DEBUG_STATS_RL:                Uvel (DYNAMICS)  min= -8.62868616340473E-02
DEBUG_STATS_RL:                Uvel (DYNAMICS)  max=  1.72075842651250E-01
DEBUG_STATS_RL:                Uvel (DYNAMICS) mean=  5.02883963362242E-03
DEBUG_STATS_RL:                Uvel (DYNAMICS) S.D.=  2.06253664235521E-02
DEBUG_STATS_RL:                Vvel (DYNAMICS)  min= -1.16186878956570E-01
DEBUG_STATS_RL:                Vvel (DYNAMICS)  max=  9.79426517355481E-02
DEBUG_STATS_RL:                Vvel (DYNAMICS) mean= -1.67021376760090E-03
DEBUG_STATS_RL:                Vvel (DYNAMICS) S.D.=  1.53303977634121E-02
DEBUG_STATS_RL:                Wvel (DYNAMICS)  min= -1.95144239930637E-04
DEBUG_STATS_RL:                Wvel (DYNAMICS)  max=  2.17798914352892E-04
DEBUG_STATS_RL:                Wvel (DYNAMICS) mean= -5.84273469622012E-07
DEBUG_STATS_RL:                Wvel (DYNAMICS) S.D.=  2.07598247371827E-05
DEBUG_STATS_RL:               Theta (DYNAMICS)  min= -1.91509915009491E+00
DEBUG_STATS_RL:               Theta (DYNAMICS)  max=  2.98253239100559E+01
DEBUG_STATS_RL:               Theta (DYNAMICS) mean=  3.20513392687253E+00
DEBUG_STATS_RL:               Theta (DYNAMICS) S.D.=  5.85205417553607E+00
DEBUG_STATS_RL:                Salt (DYNAMICS)  min= -5.20417042793042E-18
DEBUG_STATS_RL:                Salt (DYNAMICS)  max=  3.74365841761858E+01
DEBUG_STATS_RL:                Salt (DYNAMICS) mean=  1.88451680410750E+01
DEBUG_STATS_RL:                Salt (DYNAMICS) S.D.=  1.73006431861559E+01
DEBUG_STATS_RL:                  Gu (DYNAMICS)  min= -8.64950040691355E-02
DEBUG_STATS_RL:                  Gu (DYNAMICS)  max=  1.78475630272835E-01
DEBUG_STATS_RL:                  Gu (DYNAMICS) mean=  5.44737905482193E-03
DEBUG_STATS_RL:                  Gu (DYNAMICS) S.D.=  2.24080417234926E-02
DEBUG_STATS_RL:                  Gv (DYNAMICS)  min= -9.20893539879836E-02
DEBUG_STATS_RL:                  Gv (DYNAMICS)  max=  1.03026699060123E-01
DEBUG_STATS_RL:                  Gv (DYNAMICS) mean=  6.19263222972820E-04
DEBUG_STATS_RL:                  Gv (DYNAMICS) S.D.=  1.43245600655966E-02
DEBUG_STATS_RL:               GuNm1 (DYNAMICS)  min= -6.51082654366684E-06
DEBUG_STATS_RL:               GuNm1 (DYNAMICS)  max=  6.95541325880297E-06
DEBUG_STATS_RL:               GuNm1 (DYNAMICS) mean= -2.53450821418269E-08
DEBUG_STATS_RL:               GuNm1 (DYNAMICS) S.D.=  1.13063143374969E-06
DEBUG_STATS_RL:               GvNm1 (DYNAMICS)  min= -9.29775508618705E-06
DEBUG_STATS_RL:               GvNm1 (DYNAMICS)  max=  1.65446680020293E-05
DEBUG_STATS_RL:               GvNm1 (DYNAMICS) mean=  7.75062869416047E-07
DEBUG_STATS_RL:               GvNm1 (DYNAMICS) S.D.=  2.63125443044635E-06
DEBUG_STATS_RL:               GtNm1 (DYNAMICS)  min= -3.40119383291279E-06
DEBUG_STATS_RL:               GtNm1 (DYNAMICS)  max=  2.51845999954877E-06
DEBUG_STATS_RL:               GtNm1 (DYNAMICS) mean=  2.35393423221810E-08
DEBUG_STATS_RL:               GtNm1 (DYNAMICS) S.D.=  2.67128959759760E-07
DEBUG_STATS_RL:               GsNm1 (DYNAMICS)  min= -5.00687788080050E-07
DEBUG_STATS_RL:               GsNm1 (DYNAMICS)  max=  6.94962108862567E-07
DEBUG_STATS_RL:               GsNm1 (DYNAMICS) mean=  3.18216074827560E-10
DEBUG_STATS_RL:               GsNm1 (DYNAMICS) S.D.=  2.22908034691288E-08
DEBUG_STATS_RL:    cg2d_b (SOLVE_FOR_PRESSURE)  min= -1.63885966087159E+04
DEBUG_STATS_RL:    cg2d_b (SOLVE_FOR_PRESSURE)  max=  1.42176815182894E+04
DEBUG_STATS_RL:    cg2d_b (SOLVE_FOR_PRESSURE) mean=  7.26281919275950E-01
DEBUG_STATS_RL:    cg2d_b (SOLVE_FOR_PRESSURE) S.D.=  3.29673381770886E+03
 cg2d: Sum(rhs),rhsMax =   1.02592228197839E-01  1.07644690451040E+00
(PID.TID 0000.0001)  cg2d: iter=     1 ; resid.=  2.49817445460527E-01
(PID.TID 0000.0001)  cg2d: iter=     2 ; resid.=  2.21786997520603E-01
(PID.TID 0000.0001)  cg2d: iter=     3 ; resid.=  2.83365302309435E-01
(PID.TID 0000.0001)  cg2d: iter=     4 ; resid.=  2.17348989328436E-01
(PID.TID 0000.0001)  cg2d: iter=     5 ; resid.=  2.01378734395361E-01
(PID.TID 0000.0001)  cg2d: iter=     6 ; resid.=  1.74209821258428E-01
(PID.TID 0000.0001)  cg2d: iter=     7 ; resid.=  1.29656262234469E-01
(PID.TID 0000.0001)  cg2d: iter=     8 ; resid.=  8.77631281082058E-02
(PID.TID 0000.0001)  cg2d: iter=     9 ; resid.=  6.95552149581471E-02
(PID.TID 0000.0001)  cg2d: iter=    10 ; resid.=  5.82976735277246E-02
(PID.TID 0000.0001)  cg2d: iter=    11 ; resid.=  5.53634732682184E-02
(PID.TID 0000.0001)  cg2d: iter=    12 ; resid.=  4.67150038986836E-02
(PID.TID 0000.0001)  cg2d: iter=    13 ; resid.=  4.20965887743531E-02
(PID.TID 0000.0001)  cg2d: iter=    14 ; resid.=  3.68991704197960E-02
(PID.TID 0000.0001)  cg2d: iter=    15 ; resid.=  3.03965032495242E-02
(PID.TID 0000.0001)  cg2d: iter=    16 ; resid.=  2.62699959975175E-02
(PID.TID 0000.0001)  cg2d: iter=    17 ; resid.=  2.49297728897445E-02
(PID.TID 0000.0001)  cg2d: iter=    18 ; resid.=  2.08545180043004E-02
(PID.TID 0000.0001)  cg2d: iter=    19 ; resid.=  1.60522325264543E-02
(PID.TID 0000.0001)  cg2d: iter=    20 ; resid.=  1.21815382637035E-02
(PID.TID 0000.0001)  cg2d: iter=    21 ; resid.=  9.01430738640558E-03
(PID.TID 0000.0001)  cg2d: iter=    22 ; resid.=  8.11996134606435E-03
(PID.TID 0000.0001)  cg2d: iter=    23 ; resid.=  7.30359233116671E-03
(PID.TID 0000.0001)  cg2d: iter=    24 ; resid.=  6.24861038564654E-03
(PID.TID 0000.0001)  cg2d: iter=    25 ; resid.=  5.45375402341653E-03
(PID.TID 0000.0001)  cg2d: iter=    26 ; resid.=  4.46893435576845E-03
(PID.TID 0000.0001)  cg2d: iter=    27 ; resid.=  3.79387989072446E-03
(PID.TID 0000.0001)  cg2d: iter=    28 ; resid.=  3.42092436851341E-03
(PID.TID 0000.0001)  cg2d: iter=    29 ; resid.=  2.60141863629481E-03
(PID.TID 0000.0001)  cg2d: iter=    30 ; resid.=  2.00268182686775E-03
(PID.TID 0000.0001)  cg2d: iter=    31 ; resid.=  1.56764203960431E-03
(PID.TID 0000.0001)  cg2d: iter=    32 ; resid.=  1.15381057590391E-03
(PID.TID 0000.0001)  cg2d: iter=    33 ; resid.=  9.23481660263170E-04
(PID.TID 0000.0001)  cg2d: iter=    34 ; resid.=  8.08965963040772E-04
(PID.TID 0000.0001)  cg2d: iter=    35 ; resid.=  6.97562034583902E-04
(PID.TID 0000.0001)  cg2d: iter=    36 ; resid.=  6.22989910528436E-04
(PID.TID 0000.0001)  cg2d: iter=    37 ; resid.=  5.64705437112883E-04
(PID.TID 0000.0001)  cg2d: iter=    38 ; resid.=  5.38086671316681E-04
(PID.TID 0000.0001)  cg2d: iter=    39 ; resid.=  4.52744501277632E-04
(PID.TID 0000.0001)  cg2d: iter=    40 ; resid.=  3.62237260400870E-04
(PID.TID 0000.0001)  cg2d: iter=    41 ; resid.=  3.11219034577974E-04
(PID.TID 0000.0001)  cg2d: iter=    42 ; resid.=  2.93729467475244E-04
(PID.TID 0000.0001)  cg2d: iter=    43 ; resid.=  2.43408552734825E-04
(PID.TID 0000.0001)  cg2d: iter=    44 ; resid.=  1.68347294976193E-04
(PID.TID 0000.0001)  cg2d: iter=    45 ; resid.=  1.25708864849096E-04
(PID.TID 0000.0001)  cg2d: iter=    46 ; resid.=  1.10623497146988E-04
(PID.TID 0000.0001)  cg2d: iter=    47 ; resid.=  9.52465593112464E-05
(PID.TID 0000.0001)  cg2d: iter=    48 ; resid.=  7.72414095796539E-05
(PID.TID 0000.0001)  cg2d: iter=    49 ; resid.=  5.64905175156877E-05
(PID.TID 0000.0001)  cg2d: iter=    50 ; resid.=  4.32084341663152E-05
(PID.TID 0000.0001)  cg2d: iter=    51 ; resid.=  3.64525554373301E-05
(PID.TID 0000.0001)  cg2d: iter=    52 ; resid.=  3.26118510308977E-05
(PID.TID 0000.0001)  cg2d: iter=    53 ; resid.=  2.86796116932121E-05
(PID.TID 0000.0001)  cg2d: iter=    54 ; resid.=  2.41681458464589E-05
(PID.TID 0000.0001)  cg2d: iter=    55 ; resid.=  2.04097810542182E-05
(PID.TID 0000.0001)  cg2d: iter=    56 ; resid.=  1.81298451600733E-05
(PID.TID 0000.0001)  cg2d: iter=    57 ; resid.=  1.42327807793445E-05
(PID.TID 0000.0001)  cg2d: iter=    58 ; resid.=  1.07691905707822E-05
(PID.TID 0000.0001)  cg2d: iter=    59 ; resid.=  8.43541991593933E-06
(PID.TID 0000.0001)  cg2d: iter=    60 ; resid.=  6.59422476356425E-06
(PID.TID 0000.0001)  cg2d: iter=    61 ; resid.=  5.42160039613275E-06
(PID.TID 0000.0001)  cg2d: iter=    62 ; resid.=  4.38541965253920E-06
(PID.TID 0000.0001)  cg2d: iter=    63 ; resid.=  3.65276277359370E-06
(PID.TID 0000.0001)  cg2d: iter=    64 ; resid.=  3.38309461294433E-06
(PID.TID 0000.0001)  cg2d: iter=    65 ; resid.=  2.87448960014802E-06
(PID.TID 0000.0001)  cg2d: iter=    66 ; resid.=  2.08904713828381E-06
(PID.TID 0000.0001)  cg2d: iter=    67 ; resid.=  1.61126013631932E-06
(PID.TID 0000.0001)  cg2d: iter=    68 ; resid.=  1.40008241797937E-06
(PID.TID 0000.0001)  cg2d: iter=    69 ; resid.=  1.02401676692070E-06
(PID.TID 0000.0001)  cg2d: iter=    70 ; resid.=  8.06050064607853E-07
(PID.TID 0000.0001)  cg2d: iter=    71 ; resid.=  6.42356957340424E-07
(PID.TID 0000.0001)  cg2d: iter=    72 ; resid.=  5.22299633652346E-07
(PID.TID 0000.0001)  cg2d: iter=    73 ; resid.=  4.51627581914681E-07
(PID.TID 0000.0001)  cg2d: iter=    74 ; resid.=  4.04185805585230E-07
(PID.TID 0000.0001)  cg2d: iter=    75 ; resid.=  3.17348722890814E-07
(PID.TID 0000.0001)  cg2d: iter=    76 ; resid.=  2.81489076142905E-07
(PID.TID 0000.0001)  cg2d: iter=    77 ; resid.=  2.39349277096440E-07
(PID.TID 0000.0001)  cg2d: iter=    78 ; resid.=  2.08186069107556E-07
(PID.TID 0000.0001)  cg2d: iter=    79 ; resid.=  1.84353856337610E-07
(PID.TID 0000.0001)  cg2d: iter=    80 ; resid.=  1.50420901461910E-07
(PID.TID 0000.0001)  cg2d: iter=    81 ; resid.=  1.23954620926091E-07
(PID.TID 0000.0001)  cg2d: iter=    82 ; resid.=  9.63065359698878E-08
(PID.TID 0000.0001)  cg2d: iter=    83 ; resid.=  7.18277104236672E-08
(PID.TID 0000.0001)  cg2d: iter=    84 ; resid.=  5.48616549094905E-08
(PID.TID 0000.0001)  cg2d: iter=    85 ; resid.=  4.03868849043475E-08
(PID.TID 0000.0001)  cg2d: iter=    86 ; resid.=  2.99481284182333E-08
(PID.TID 0000.0001)  cg2d: iter=    87 ; resid.=  2.34553089905403E-08
(PID.TID 0000.0001)  cg2d: iter=    88 ; resid.=  1.75164847075531E-08
(PID.TID 0000.0001)  cg2d: iter=    89 ; resid.=  1.47686098396875E-08
(PID.TID 0000.0001)  cg2d: iter=    90 ; resid.=  1.25870083781277E-08
(PID.TID 0000.0001)  cg2d: iter=    91 ; resid.=  9.74089500751666E-09
(PID.TID 0000.0001)  cg2d: iter=    92 ; resid.=  7.76781178578482E-09
(PID.TID 0000.0001)  cg2d: iter=    93 ; resid.=  6.07223271857554E-09
(PID.TID 0000.0001)  cg2d: iter=    94 ; resid.=  4.44771508208368E-09
(PID.TID 0000.0001)  cg2d: iter=    95 ; resid.=  3.45563437339808E-09
(PID.TID 0000.0001)  cg2d: iter=    96 ; resid.=  2.60813196317179E-09
(PID.TID 0000.0001)  cg2d: iter=    97 ; resid.=  1.80430090883912E-09
(PID.TID 0000.0001)  cg2d: iter=    98 ; resid.=  1.32327388983543E-09
(PID.TID 0000.0001)  cg2d: iter=    99 ; resid.=  1.03725203128018E-09
(PID.TID 0000.0001)  cg2d: iter=   100 ; resid.=  7.93910598023347E-10
(PID.TID 0000.0001)  cg2d: iter=   101 ; resid.=  6.37095097108129E-10
(PID.TID 0000.0001)  cg2d: iter=   102 ; resid.=  5.37869728192039E-10
(PID.TID 0000.0001)  cg2d: iter=   103 ; resid.=  4.66432236899447E-10
(PID.TID 0000.0001)  cg2d: iter=   104 ; resid.=  3.93877294597736E-10
(PID.TID 0000.0001)  cg2d: iter=   105 ; resid.=  3.37092582159007E-10
(PID.TID 0000.0001)  cg2d: iter=   106 ; resid.=  2.79103285724100E-10
(PID.TID 0000.0001)  cg2d: iter=   107 ; resid.=  2.26056558328307E-10
(PID.TID 0000.0001)  cg2d: iter=   108 ; resid.=  1.79285454620482E-10
(PID.TID 0000.0001)  cg2d: iter=   109 ; resid.=  1.43945083544564E-10
(PID.TID 0000.0001)  cg2d: iter=   110 ; resid.=  1.19974913119596E-10
(PID.TID 0000.0001)  cg2d: iter=   111 ; resid.=  9.58564835079982E-11
(PID.TID 0000.0001)  cg2d: iter=   112 ; resid.=  7.23847304487275E-11
(PID.TID 0000.0001)  cg2d: iter=   113 ; resid.=  5.20169671986474E-11
(PID.TID 0000.0001)  cg2d: iter=   114 ; resid.=  4.26230880931949E-11
(PID.TID 0000.0001)  cg2d: iter=   115 ; resid.=  3.47715559890884E-11
(PID.TID 0000.0001)  cg2d: iter=   116 ; resid.=  2.79055883868858E-11
(PID.TID 0000.0001)  cg2d: iter=   117 ; resid.=  2.05540143465008E-11
(PID.TID 0000.0001)  cg2d: iter=   118 ; resid.=  1.50666690115617E-11
(PID.TID 0000.0001)  cg2d: iter=   119 ; resid.=  1.17586338345777E-11
(PID.TID 0000.0001)  cg2d: iter=   120 ; resid.=  9.20467355093118E-12
(PID.TID 0000.0001)  cg2d: iter=   121 ; resid.=  7.30190229457408E-12
(PID.TID 0000.0001)  cg2d: iter=   122 ; resid.=  5.53498830200076E-12
(PID.TID 0000.0001)  cg2d: iter=   123 ; resid.=  4.30383086153146E-12
(PID.TID 0000.0001)  cg2d: iter=   124 ; resid.=  3.00268621629949E-12
(PID.TID 0000.0001)  cg2d: iter=   125 ; resid.=  2.17928606902542E-12
(PID.TID 0000.0001)  cg2d: iter=   126 ; resid.=  1.51880056576803E-12
(PID.TID 0000.0001)  cg2d: iter=   127 ; resid.=  1.01900673735378E-12
(PID.TID 0000.0001)  cg2d: iter=   128 ; resid.=  7.43774737677427E-13
(PID.TID 0000.0001)  cg2d: iter=   129 ; resid.=  5.51220583970140E-13
(PID.TID 0000.0001)  cg2d: iter=   130 ; resid.=  4.38485351101821E-13
(PID.TID 0000.0001)  cg2d: iter=   131 ; resid.=  3.52001968053586E-13
(PID.TID 0000.0001)  cg2d: iter=   132 ; resid.=  2.90394715840804E-13
(PID.TID 0000.0001)  cg2d: iter=   133 ; resid.=  2.16844595717618E-13
(PID.TID 0000.0001)  cg2d: iter=   134 ; resid.=  1.67081753863617E-13
(PID.TID 0000.0001)  cg2d: iter=   135 ; resid.=  1.29377237616282E-13
(PID.TID 0000.0001)  cg2d: iter=   136 ; resid.=  9.53445310839852E-14
DEBUG_STATS_RL:    cg2d_x (SOLVE_FOR_PRESSURE)  min= -1.33097809404987E+01
DEBUG_STATS_RL:    cg2d_x (SOLVE_FOR_PRESSURE)  max=  7.56008977382451E+00
DEBUG_STATS_RL:    cg2d_x (SOLVE_FOR_PRESSURE) mean= -1.50900071256944E+00
DEBUG_STATS_RL:    cg2d_x (SOLVE_FOR_PRESSURE) S.D.=  5.85312466234628E+00
(PID.TID 0000.0001)      cg2d_init_res =   9.20153296174689E-01
(PID.TID 0000.0001)      cg2d_iters(min,last) =      -1     136
(PID.TID 0000.0001)      cg2d_last_res =   9.53445310839852E-14
(PID.TID 0000.0001) // =======================================================
(PID.TID 0000.0001) // Begin MONITOR dynamic field statistics
(PID.TID 0000.0001) // =======================================================
(PID.TID 0000.0001) %MON time_tsnumber                =                    11
(PID.TID 0000.0001) %MON time_secondsf                =   9.5040000000000E+05
(PID.TID 0000.0001) %MON dynstat_eta_max              =   7.7065135309119E-01
(PID.TID 0000.0001) %MON dynstat_eta_min              =  -1.3567564669213E+00
(PID.TID 0000.0001) %MON dynstat_eta_mean             =  -7.5778512677931E-04
(PID.TID 0000.0001) %MON dynstat_eta_sd               =   5.2816724760167E-01
(PID.TID 0000.0001) %MON dynstat_eta_del2             =   1.7807350485144E-03
(PID.TID 0000.0001) %MON dynstat_uvel_max             =   1.8020866805446E-01
(PID.TID 0000.0001) %MON dynstat_uvel_min             =  -9.1048744323593E-02
(PID.TID 0000.0001) %MON dynstat_uvel_mean            =   4.4066473116330E-04
(PID.TID 0000.0001) %MON dynstat_uvel_sd              =   1.3276002248029E-02
(PID.TID 0000.0001) %MON dynstat_uvel_del2            =   8.7894492033029E-05
(PID.TID 0000.0001) %MON dynstat_vvel_max             =   9.9634568252875E-02
(PID.TID 0000.0001) %MON dynstat_vvel_min             =  -1.1191987453581E-01
(PID.TID 0000.0001) %MON dynstat_vvel_mean            =  -1.9309598271141E-04
(PID.TID 0000.0001) %MON dynstat_vvel_sd              =   9.9844440090692E-03
(PID.TID 0000.0001) %MON dynstat_vvel_del2            =   9.9968874513690E-05
(PID.TID 0000.0001) %MON dynstat_wvel_max             =   2.0677377669882E-04
(PID.TID 0000.0001) %MON dynstat_wvel_min             =  -1.8846794125018E-04
(PID.TID 0000.0001) %MON dynstat_wvel_mean            =   3.7206842743567E-22
(PID.TID 0000.0001) %MON dynstat_wvel_sd              =   2.1329073005856E-05
(PID.TID 0000.0001) %MON dynstat_wvel_del2            =   2.3332113667882E-07
(PID.TID 0000.0001) %MON dynstat_theta_max            =   2.9825323910056E+01
(PID.TID 0000.0001) %MON dynstat_theta_min            =  -1.9150991500949E+00
(PID.TID 0000.0001) %MON dynstat_theta_mean           =   3.6195845473573E+00
(PID.TID 0000.0001) %MON dynstat_theta_sd             =   4.4150192938714E+00
(PID.TID 0000.0001) %MON dynstat_theta_del2           =   5.0212780089518E-03
(PID.TID 0000.0001) %MON dynstat_salt_max             =   3.7436584176186E+01
(PID.TID 0000.0001) %MON dynstat_salt_min             =   2.9752756888459E+01
(PID.TID 0000.0001) %MON dynstat_salt_mean            =   3.4717971083885E+01
(PID.TID 0000.0001) %MON dynstat_salt_sd              =   2.9616492905620E-01
(PID.TID 0000.0001) %MON dynstat_salt_del2            =   1.0094825750798E-03
(PID.TID 0000.0001) %MON dynstat_sst_max              =   2.9825323910056E+01
(PID.TID 0000.0001) %MON dynstat_sst_min              =  -1.9150991500949E+00
(PID.TID 0000.0001) %MON dynstat_sst_mean             =   1.8616261862802E+01
(PID.TID 0000.0001) %MON dynstat_sst_sd               =   9.0734380739109E+00
(PID.TID 0000.0001) %MON dynstat_sst_del2             =   2.6137623991753E-02
(PID.TID 0000.0001) %MON dynstat_sss_max              =   3.7429968623875E+01
(PID.TID 0000.0001) %MON dynstat_sss_min              =   2.9752756888459E+01
(PID.TID 0000.0001) %MON dynstat_sss_mean             =   3.4854278239737E+01
(PID.TID 0000.0001) %MON dynstat_sss_sd               =   9.6781566799734E-01
(PID.TID 0000.0001) %MON dynstat_sss_del2             =   7.9900742620004E-03
(PID.TID 0000.0001) %MON forcing_qnet_max             =   4.3637268066406E+02
(PID.TID 0000.0001) %MON forcing_qnet_min             =  -1.8235535939535E+02
(PID.TID 0000.0001) %MON forcing_qnet_mean            =  -1.6575085780159E+01
(PID.TID 0000.0001) %MON forcing_qnet_sd              =   1.1080111313050E+02
(PID.TID 0000.0001) %MON forcing_qnet_del2            =   1.0090595771019E+00
(PID.TID 0000.0001) %MON forcing_qsw_max              =   0.0000000000000E+00
(PID.TID 0000.0001) %MON forcing_qsw_min              =   0.0000000000000E+00
(PID.TID 0000.0001) %MON forcing_qsw_mean             =   0.0000000000000E+00
(PID.TID 0000.0001) %MON forcing_qsw_sd               =   0.0000000000000E+00
(PID.TID 0000.0001) %MON forcing_qsw_del2             =   0.0000000000000E+00
(PID.TID 0000.0001) %MON forcing_empmr_max            =   8.1894273288678E-05
(PID.TID 0000.0001) %MON forcing_empmr_min            =  -7.3480514117819E-05
(PID.TID 0000.0001) %MON forcing_empmr_mean           =   8.7408827338311E-07
(PID.TID 0000.0001) %MON forcing_empmr_sd             =   2.8361319601892E-05
(PID.TID 0000.0001) %MON forcing_empmr_del2           =   3.6367323918582E-07
(PID.TID 0000.0001) %MON forcing_fu_max               =   2.7009907364845E-01
(PID.TID 0000.0001) %MON forcing_fu_min               =  -1.6681347042322E-01
(PID.TID 0000.0001) %MON forcing_fu_mean              =   1.6040199257752E-02
(PID.TID 0000.0001) %MON forcing_fu_sd                =   9.0490139077950E-02
(PID.TID 0000.0001) %MON forcing_fu_del2              =   6.8923424175348E-04
(PID.TID 0000.0001) %MON forcing_fv_max               =   2.2372179478407E-01
(PID.TID 0000.0001) %MON forcing_fv_min               =  -1.8106018751860E-01
(PID.TID 0000.0001) %MON forcing_fv_mean              =  -5.6277103738091E-03
(PID.TID 0000.0001) %MON forcing_fv_sd                =   4.6864764071854E-02
(PID.TID 0000.0001) %MON forcing_fv_del2              =   4.6941931464937E-04
(PID.TID 0000.0001) %MON trAdv_CFL_u_max              =   5.0036398718119E-02
(PID.TID 0000.0001) %MON trAdv_CFL_v_max              =   2.1854600307093E-02
(PID.TID 0000.0001) %MON trAdv_CFL_w_max              =   6.8756229804092E-02
(PID.TID 0000.0001) %MON advcfl_uvel_max              =   5.2271413907513E-02
(PID.TID 0000.0001) %MON advcfl_vvel_max              =   2.1744236643323E-02
(PID.TID 0000.0001) %MON advcfl_wvel_max              =   7.1892044533012E-02
(PID.TID 0000.0001) %MON advcfl_W_hf_max              =   8.1351524076830E-02
(PID.TID 0000.0001) %MON pe_b_mean                    =   3.5696449944427E-04
(PID.TID 0000.0001) %MON ke_max                       =   1.6121855057011E-02
(PID.TID 0000.0001) %MON ke_mean                      =   1.2493383581939E-04
(PID.TID 0000.0001) %MON ke_vol                       =   1.3226782436723E+18
(PID.TID 0000.0001) %MON vort_r_min                   =  -3.9536803045384E-07
(PID.TID 0000.0001) %MON vort_r_max                   =   3.1273505794568E-07
(PID.TID 0000.0001) %MON vort_a_mean                  =  -2.5274807222334E-05
(PID.TID 0000.0001) %MON vort_a_sd                    =   7.3604403917957E-05
(PID.TID 0000.0001) %MON vort_p_mean                  =  -3.1845655578829E-05
(PID.TID 0000.0001) %MON vort_p_sd                    =   1.3162398077111E-04
(PID.TID 0000.0001) %MON surfExpan_theta_mean         =   4.7355811427750E-07
(PID.TID 0000.0001) %MON surfExpan_salt_mean          =  -6.4015397933842E-08
(PID.TID 0000.0001) // =======================================================
(PID.TID 0000.0001) // End MONITOR dynamic field statistics
(PID.TID 0000.0001) // =======================================================
 EXTERNAL_FIELDS_LOAD,        11 : iP,iLd,i0,i1=   12    1   12    1 ; Wght=  0.1333333333  0.8666666667
 EXTERNAL_FIELDS_LOAD: (fu0,1),fu,fv= -4.5368E-02 -3.5633E-02 -3.6931E-02 -5.8989E-02
 EXTERNAL_FIELDS_LOAD: SST,SSS,Q,E-P=  7.1702E-01  3.4621E+01  2.6559E+02  1.1425E-05
DEBUG_STATS_RL:          Uvel (THERMODYNAMICS)  min= -9.10487443235933E-02
DEBUG_STATS_RL:          Uvel (THERMODYNAMICS)  max=  1.80208668054459E-01
DEBUG_STATS_RL:          Uvel (THERMODYNAMICS) mean=  5.60191352318295E-03
DEBUG_STATS_RL:          Uvel (THERMODYNAMICS) S.D.=  2.23112099225561E-02
DEBUG_STATS_RL:          Vvel (THERMODYNAMICS)  min= -1.11919874535808E-01
DEBUG_STATS_RL:          Vvel (THERMODYNAMICS)  max=  9.96345682528751E-02
DEBUG_STATS_RL:          Vvel (THERMODYNAMICS) mean= -1.31302980008362E-03
DEBUG_STATS_RL:          Vvel (THERMODYNAMICS) S.D.=  1.49568304498955E-02
DEBUG_STATS_RL:          Wvel (THERMODYNAMICS)  min= -1.88467941250176E-04
DEBUG_STATS_RL:          Wvel (THERMODYNAMICS)  max=  2.06773776698822E-04
DEBUG_STATS_RL:          Wvel (THERMODYNAMICS) mean= -5.06327870420892E-07
DEBUG_STATS_RL:          Wvel (THERMODYNAMICS) S.D.=  1.90993306420677E-05
DEBUG_STATS_RL:         Theta (THERMODYNAMICS)  min= -1.91494319452699E+00
DEBUG_STATS_RL:         Theta (THERMODYNAMICS)  max=  2.98294630774723E+01
DEBUG_STATS_RL:         Theta (THERMODYNAMICS) mean=  3.20604177893877E+00
DEBUG_STATS_RL:         Theta (THERMODYNAMICS) S.D.=  5.85287756652056E+00
DEBUG_STATS_RL:          Salt (THERMODYNAMICS)  min= -5.20417042793042E-18
DEBUG_STATS_RL:          Salt (THERMODYNAMICS)  max=  3.74369043647951E+01
DEBUG_STATS_RL:          Salt (THERMODYNAMICS) mean=  1.88451830449379E+01
DEBUG_STATS_RL:          Salt (THERMODYNAMICS) S.D.=  1.73006581000224E+01
DEBUG_STATS_RL:         GtNm1 (THERMODYNAMICS)  min= -3.79085730086264E-06
DEBUG_STATS_RL:         GtNm1 (THERMODYNAMICS)  max=  3.74330742775347E-06
DEBUG_STATS_RL:         GtNm1 (THERMODYNAMICS) mean=  2.16049698193578E-08
DEBUG_STATS_RL:         GtNm1 (THERMODYNAMICS) S.D.=  2.64690401111275E-07
DEBUG_STATS_RL:         GsNm1 (THERMODYNAMICS)  min= -7.94445829531385E-07
DEBUG_STATS_RL:         GsNm1 (THERMODYNAMICS)  max=  1.05182368838572E-06
DEBUG_STATS_RL:         GsNm1 (THERMODYNAMICS) mean=  2.83624068202060E-10
DEBUG_STATS_RL:         GsNm1 (THERMODYNAMICS) S.D.=  2.30018362772068E-08
DEBUG_STATS_RL:                EtaN (DYNAMICS)  min= -1.35675646692134E+00
DEBUG_STATS_RL:                EtaN (DYNAMICS)  max=  7.70651353091187E-01
DEBUG_STATS_RL:                EtaN (DYNAMICS) mean= -1.53822702606469E-01
DEBUG_STATS_RL:                EtaN (DYNAMICS) S.D.=  5.96648793307471E-01
DEBUG_STATS_RL:                Uvel (DYNAMICS)  min= -9.10487443235933E-02
DEBUG_STATS_RL:                Uvel (DYNAMICS)  max=  1.80208668054459E-01
DEBUG_STATS_RL:                Uvel (DYNAMICS) mean=  5.60191352318295E-03
DEBUG_STATS_RL:                Uvel (DYNAMICS) S.D.=  2.23112099225561E-02
DEBUG_STATS_RL:                Vvel (DYNAMICS)  min= -1.11919874535808E-01
DEBUG_STATS_RL:                Vvel (DYNAMICS)  max=  9.96345682528751E-02
DEBUG_STATS_RL:                Vvel (DYNAMICS) mean= -1.31302980008362E-03
DEBUG_STATS_RL:                Vvel (DYNAMICS) S.D.=  1.49568304498955E-02
DEBUG_STATS_RL:                Wvel (DYNAMICS)  min= -1.88467941250176E-04
DEBUG_STATS_RL:                Wvel (DYNAMICS)  max=  2.06773776698822E-04
DEBUG_STATS_RL:                Wvel (DYNAMICS) mean= -5.06327870420892E-07
DEBUG_STATS_RL:                Wvel (DYNAMICS) S.D.=  1.90993306420677E-05
DEBUG_STATS_RL:               Theta (DYNAMICS)  min= -1.91494319452699E+00
DEBUG_STATS_RL:               Theta (DYNAMICS)  max=  2.98294630774723E+01
DEBUG_STATS_RL:               Theta (DYNAMICS) mean=  3.20604177893877E+00
DEBUG_STATS_RL:               Theta (DYNAMICS) S.D.=  5.85287756652056E+00
DEBUG_STATS_RL:                Salt (DYNAMICS)  min= -5.20417042793042E-18
DEBUG_STATS_RL:                Salt (DYNAMICS)  max=  3.74369043647951E+01
DEBUG_STATS_RL:                Salt (DYNAMICS) mean=  1.88451830449379E+01
DEBUG_STATS_RL:                Salt (DYNAMICS) S.D.=  1.73006581000224E+01
DEBUG_STATS_RL:                  Gu (DYNAMICS)  min= -9.10896466002477E-02
DEBUG_STATS_RL:                  Gu (DYNAMICS)  max=  1.84607015137867E-01
DEBUG_STATS_RL:                  Gu (DYNAMICS) mean=  5.94154098422826E-03
DEBUG_STATS_RL:                  Gu (DYNAMICS) S.D.=  2.38308402549968E-02
DEBUG_STATS_RL:                  Gv (DYNAMICS)  min= -8.99755576234021E-02
DEBUG_STATS_RL:                  Gv (DYNAMICS)  max=  1.04258086568585E-01
DEBUG_STATS_RL:                  Gv (DYNAMICS) mean=  1.04712676413628E-03
DEBUG_STATS_RL:                  Gv (DYNAMICS) S.D.=  1.41777279999853E-02
DEBUG_STATS_RL:               GuNm1 (DYNAMICS)  min= -6.50093704195922E-06
DEBUG_STATS_RL:               GuNm1 (DYNAMICS)  max=  6.86215331534571E-06
DEBUG_STATS_RL:               GuNm1 (DYNAMICS) mean= -2.39550858272668E-08
DEBUG_STATS_RL:               GuNm1 (DYNAMICS) S.D.=  1.11525691261969E-06
DEBUG_STATS_RL:               GvNm1 (DYNAMICS)  min= -9.04524323687525E-06
DEBUG_STATS_RL:               GvNm1 (DYNAMICS)  max=  1.66143279718511E-05
DEBUG_STATS_RL:               GvNm1 (DYNAMICS) mean=  7.74779434632927E-07
DEBUG_STATS_RL:               GvNm1 (DYNAMICS) S.D.=  2.61036744311653E-06
DEBUG_STATS_RL:               GtNm1 (DYNAMICS)  min= -3.79085730086264E-06
DEBUG_STATS_RL:               GtNm1 (DYNAMICS)  max=  3.74330742775347E-06
DEBUG_STATS_RL:               GtNm1 (DYNAMICS) mean=  2.16049698193578E-08
DEBUG_STATS_RL:               GtNm1 (DYNAMICS) S.D.=  2.64690401111275E-07
DEBUG_STATS_RL:               GsNm1 (DYNAMICS)  min= -7.94445829531385E-07
DEBUG_STATS_RL:               GsNm1 (DYNAMICS)  max=  1.05182368838572E-06
DEBUG_STATS_RL:               GsNm1 (DYNAMICS) mean=  2.83624068202060E-10
DEBUG_STATS_RL:               GsNm1 (DYNAMICS) S.D.=  2.30018362772068E-08
DEBUG_STATS_RL:    cg2d_b (SOLVE_FOR_PRESSURE)  min= -1.60441742669237E+04
DEBUG_STATS_RL:    cg2d_b (SOLVE_FOR_PRESSURE)  max=  1.36270131306881E+04
DEBUG_STATS_RL:    cg2d_b (SOLVE_FOR_PRESSURE) mean=  7.96997491615073E-01
DEBUG_STATS_RL:    cg2d_b (SOLVE_FOR_PRESSURE) S.D.=  3.20583053893393E+03
 cg2d: Sum(rhs),rhsMax =   1.14998077332729E-01  1.05382432293625E+00
(PID.TID 0000.0001)  cg2d: iter=     1 ; resid.=  2.24392243175052E-01
(PID.TID 0000.0001)  cg2d: iter=     2 ; resid.=  1.72688908171512E-01
(PID.TID 0000.0001)  cg2d: iter=     3 ; resid.=  2.22158969759717E-01
(PID.TID 0000.0001)  cg2d: iter=     4 ; resid.=  1.78606077171831E-01
(PID.TID 0000.0001)  cg2d: iter=     5 ; resid.=  1.63065692568104E-01
(PID.TID 0000.0001)  cg2d: iter=     6 ; resid.=  1.39035322887945E-01
(PID.TID 0000.0001)  cg2d: iter=     7 ; resid.=  1.09656132933292E-01
(PID.TID 0000.0001)  cg2d: iter=     8 ; resid.=  7.55150595952849E-02
(PID.TID 0000.0001)  cg2d: iter=     9 ; resid.=  5.95171880699706E-02
(PID.TID 0000.0001)  cg2d: iter=    10 ; resid.=  5.02869558671860E-02
(PID.TID 0000.0001)  cg2d: iter=    11 ; resid.=  4.76117617087473E-02
(PID.TID 0000.0001)  cg2d: iter=    12 ; resid.=  3.93495264301764E-02
(PID.TID 0000.0001)  cg2d: iter=    13 ; resid.=  3.36756303148913E-02
(PID.TID 0000.0001)  cg2d: iter=    14 ; resid.=  2.90808762966110E-02
(PID.TID 0000.0001)  cg2d: iter=    15 ; resid.=  2.38098720075743E-02
(PID.TID 0000.0001)  cg2d: iter=    16 ; resid.=  1.99431320352644E-02
(PID.TID 0000.0001)  cg2d: iter=    17 ; resid.=  1.91026076735487E-02
(PID.TID 0000.0001)  cg2d: iter=    18 ; resid.=  1.66918818575034E-02
(PID.TID 0000.0001)  cg2d: iter=    19 ; resid.=  1.33883428570132E-02
(PID.TID 0000.0001)  cg2d: iter=    20 ; resid.=  1.02785779037717E-02
(PID.TID 0000.0001)  cg2d: iter=    21 ; resid.=  7.50147078891352E-03
(PID.TID 0000.0001)  cg2d: iter=    22 ; resid.=  6.46025859484976E-03
(PID.TID 0000.0001)  cg2d: iter=    23 ; resid.=  5.56273756386349E-03
(PID.TID 0000.0001)  cg2d: iter=    24 ; resid.=  4.67844154342204E-03
(PID.TID 0000.0001)  cg2d: iter=    25 ; resid.=  3.94682716186521E-03
(PID.TID 0000.0001)  cg2d: iter=    26 ; resid.=  3.25050642471624E-03
(PID.TID 0000.0001)  cg2d: iter=    27 ; resid.=  2.82312903529210E-03
(PID.TID 0000.0001)  cg2d: iter=    28 ; resid.=  2.61520445130042E-03
(PID.TID 0000.0001)  cg2d: iter=    29 ; resid.=  2.04178344573991E-03
(PID.TID 0000.0001)  cg2d: iter=    30 ; resid.=  1.57771088101185E-03
(PID.TID 0000.0001)  cg2d: iter=    31 ; resid.=  1.25180545897870E-03
(PID.TID 0000.0001)  cg2d: iter=    32 ; resid.=  9.52238596887944E-04
(PID.TID 0000.0001)  cg2d: iter=    33 ; resid.=  7.53284611067041E-04
(PID.TID 0000.0001)  cg2d: iter=    34 ; resid.=  6.53046825709008E-04
(PID.TID 0000.0001)  cg2d: iter=    35 ; resid.=  5.42744653143288E-04
(PID.TID 0000.0001)  cg2d: iter=    36 ; resid.=  4.66998919705819E-04
(PID.TID 0000.0001)  cg2d: iter=    37 ; resid.=  4.10487268268262E-04
(PID.TID 0000.0001)  cg2d: iter=    38 ; resid.=  3.80789289678156E-04
(PID.TID 0000.0001)  cg2d: iter=    39 ; resid.=  3.19520881414019E-04
(PID.TID 0000.0001)  cg2d: iter=    40 ; resid.=  2.55296769180438E-04
(PID.TID 0000.0001)  cg2d: iter=    41 ; resid.=  2.22459549273115E-04
(PID.TID 0000.0001)  cg2d: iter=    42 ; resid.=  2.22096970549575E-04
(PID.TID 0000.0001)  cg2d: iter=    43 ; resid.=  1.99061950077955E-04
(PID.TID 0000.0001)  cg2d: iter=    44 ; resid.=  1.44272501389397E-04
(PID.TID 0000.0001)  cg2d: iter=    45 ; resid.=  1.08349471435073E-04
(PID.TID 0000.0001)  cg2d: iter=    46 ; resid.=  9.42577000844353E-05
(PID.TID 0000.0001)  cg2d: iter=    47 ; resid.=  8.24289036549819E-05
(PID.TID 0000.0001)  cg2d: iter=    48 ; resid.=  6.80302493871557E-05
(PID.TID 0000.0001)  cg2d: iter=    49 ; resid.=  5.00646801284049E-05
(PID.TID 0000.0001)  cg2d: iter=    50 ; resid.=  3.88206568820950E-05
(PID.TID 0000.0001)  cg2d: iter=    51 ; resid.=  3.32779463912932E-05
(PID.TID 0000.0001)  cg2d: iter=    52 ; resid.=  3.06746458059842E-05
(PID.TID 0000.0001)  cg2d: iter=    53 ; resid.=  2.68763852294437E-05
(PID.TID 0000.0001)  cg2d: iter=    54 ; resid.=  2.22141737690881E-05
(PID.TID 0000.0001)  cg2d: iter=    55 ; resid.=  1.82968127116015E-05
(PID.TID 0000.0001)  cg2d: iter=    56 ; resid.=  1.55066325652240E-05
(PID.TID 0000.0001)  cg2d: iter=    57 ; resid.=  1.22243851066567E-05
(PID.TID 0000.0001)  cg2d: iter=    58 ; resid.=  9.45416634290109E-06
(PID.TID 0000.0001)  cg2d: iter=    59 ; resid.=  7.70387103652657E-06
(PID.TID 0000.0001)  cg2d: iter=    60 ; resid.=  6.14296132297733E-06
(PID.TID 0000.0001)  cg2d: iter=    61 ; resid.=  5.29054929790054E-06
(PID.TID 0000.0001)  cg2d: iter=    62 ; resid.=  4.39985542632194E-06
(PID.TID 0000.0001)  cg2d: iter=    63 ; resid.=  3.68644420758214E-06
(PID.TID 0000.0001)  cg2d: iter=    64 ; resid.=  3.30457007210727E-06
(PID.TID 0000.0001)  cg2d: iter=    65 ; resid.=  2.71438121670602E-06
(PID.TID 0000.0001)  cg2d: iter=    66 ; resid.=  1.90846362473445E-06
(PID.TID 0000.0001)  cg2d: iter=    67 ; resid.=  1.45077976225689E-06
(PID.TID 0000.0001)  cg2d: iter=    68 ; resid.=  1.27548564993039E-06
(PID.TID 0000.0001)  cg2d: iter=    69 ; resid.=  9.95315597664776E-07
(PID.TID 0000.0001)  cg2d: iter=    70 ; resid.=  8.32537390407046E-07
(PID.TID 0000.0001)  cg2d: iter=    71 ; resid.=  6.85701105521379E-07
(PID.TID 0000.0001)  cg2d: iter=    72 ; resid.=  5.85334877835994E-07
(PID.TID 0000.0001)  cg2d: iter=    73 ; resid.=  5.11995187059095E-07
(PID.TID 0000.0001)  cg2d: iter=    74 ; resid.=  4.38136376231508E-07
(PID.TID 0000.0001)  cg2d: iter=    75 ; resid.=  3.32004668291230E-07
(PID.TID 0000.0001)  cg2d: iter=    76 ; resid.=  2.86966428543006E-07
(PID.TID 0000.0001)  cg2d: iter=    77 ; resid.=  2.36194415818675E-07
(PID.TID 0000.0001)  cg2d: iter=    78 ; resid.=  2.05922917781114E-07
(PID.TID 0000.0001)  cg2d: iter=    79 ; resid.=  1.82698683480629E-07
(PID.TID 0000.0001)  cg2d: iter=    80 ; resid.=  1.47315648138840E-07
(PID.TID 0000.0001)  cg2d: iter=    81 ; resid.=  1.19987645980131E-07
(PID.TID 0000.0001)  cg2d: iter=    82 ; resid.=  9.33522006453894E-08
(PID.TID 0000.0001)  cg2d: iter=    83 ; resid.=  7.03921858374786E-08
(PID.TID 0000.0001)  cg2d: iter=    84 ; resid.=  5.49630335700325E-08
(PID.TID 0000.0001)  cg2d: iter=    85 ; resid.=  4.17111885603788E-08
(PID.TID 0000.0001)  cg2d: iter=    86 ; resid.=  3.27403292254593E-08
(PID.TID 0000.0001)  cg2d: iter=    87 ; resid.=  2.66832745167272E-08
(PID.TID 0000.0001)  cg2d: iter=    88 ; resid.=  2.08124383404573E-08
(PID.TID 0000.0001)  cg2d: iter=    89 ; resid.=  1.74588074555902E-08
(PID.TID 0000.0001)  cg2d: iter=    90 ; resid.=  1.38641218026094E-08
(PID.TID 0000.0001)  cg2d: iter=    91 ; resid.=  9.74004804891518E-09
(PID.TID 0000.0001)  cg2d: iter=    92 ; resid.=  7.30826643099971E-09
(PID.TID 0000.0001)  cg2d: iter=    93 ; resid.=  5.54171812526675E-09
(PID.TID 0000.0001)  cg2d: iter=    94 ; resid.=  4.03308453313023E-09
(PID.TID 0000.0001)  cg2d: iter=    95 ; resid.=  3.18380404698737E-09
(PID.TID 0000.0001)  cg2d: iter=    96 ; resid.=  2.48567642288908E-09
(PID.TID 0000.0001)  cg2d: iter=    97 ; resid.=  1.85789460767334E-09
(PID.TID 0000.0001)  cg2d: iter=    98 ; resid.=  1.52728511128644E-09
(PID.TID 0000.0001)  cg2d: iter=    99 ; resid.=  1.27137784105158E-09
(PID.TID 0000.0001)  cg2d: iter=   100 ; resid.=  1.04815571948342E-09
(PID.TID 0000.0001)  cg2d: iter=   101 ; resid.=  8.80840280869389E-10
(PID.TID 0000.0001)  cg2d: iter=   102 ; resid.=  7.67039359895624E-10
(PID.TID 0000.0001)  cg2d: iter=   103 ; resid.=  6.72031676524675E-10
(PID.TID 0000.0001)  cg2d: iter=   104 ; resid.=  5.50802986642743E-10
(PID.TID 0000.0001)  cg2d: iter=   105 ; resid.=  4.28846233453031E-10
(PID.TID 0000.0001)  cg2d: iter=   106 ; resid.=  3.40203850463306E-10
(PID.TID 0000.0001)  cg2d: iter=   107 ; resid.=  2.69911018391228E-10
(PID.TID 0000.0001)  cg2d: iter=   108 ; resid.=  2.12095381090808E-10
(PID.TID 0000.0001)  cg2d: iter=   109 ; resid.=  1.64277972957335E-10
(PID.TID 0000.0001)  cg2d: iter=   110 ; resid.=  1.32290436151512E-10
(PID.TID 0000.0001)  cg2d: iter=   111 ; resid.=  1.04679981589935E-10
(PID.TID 0000.0001)  cg2d: iter=   112 ; resid.=  7.89714664125036E-11
(PID.TID 0000.0001)  cg2d: iter=   113 ; resid.=  5.68553421093252E-11
(PID.TID 0000.0001)  cg2d: iter=   114 ; resid.=  4.54607258557027E-11
(PID.TID 0000.0001)  cg2d: iter=   115 ; resid.=  3.68639889219473E-11
(PID.TID 0000.0001)  cg2d: iter=   116 ; resid.=  2.98374268658114E-11
(PID.TID 0000.0001)  cg2d: iter=   117 ; resid.=  2.31572200033679E-11
(PID.TID 0000.0001)  cg2d: iter=   118 ; resid.=  1.75270720006305E-11
(PID.TID 0000.0001)  cg2d: iter=   119 ; resid.=  1.36665973444335E-11
(PID.TID 0000.0001)  cg2d: iter=   120 ; resid.=  1.01280935898700E-11
(PID.TID 0000.0001)  cg2d: iter=   121 ; resid.=  7.44382648909025E-12
(PID.TID 0000.0001)  cg2d: iter=   122 ; resid.=  5.23311449195271E-12
(PID.TID 0000.0001)  cg2d: iter=   123 ; resid.=  3.91309380879688E-12
(PID.TID 0000.0001)  cg2d: iter=   124 ; resid.=  2.64906585265410E-12
(PID.TID 0000.0001)  cg2d: iter=   125 ; resid.=  1.84828722759371E-12
(PID.TID 0000.0001)  cg2d: iter=   126 ; resid.=  1.30133252941666E-12
(PID.TID 0000.0001)  cg2d: iter=   127 ; resid.=  8.86314108653427E-13
(PID.TID 0000.0001)  cg2d: iter=   128 ; resid.=  6.64206501292446E-13
(PID.TID 0000.0001)  cg2d: iter=   129 ; resid.=  5.23837536129253E-13
(PID.TID 0000.0001)  cg2d: iter=   130 ; resid.=  4.29645776479131E-13
(PID.TID 0000.0001)  cg2d: iter=   131 ; resid.=  3.53023972334409E-13
(PID.TID 0000.0001)  cg2d: iter=   132 ; resid.=  2.86942855033390E-13
(PID.TID 0000.0001)  cg2d: iter=   133 ; resid.=  2.11511799581983E-13
(PID.TID 0000.0001)  cg2d: iter=   134 ; resid.=  1.61229004554373E-13
(PID.TID 0000.0001)  cg2d: iter=   135 ; resid.=  1.21888705096257E-13
(PID.TID 0000.0001)  cg2d: iter=   136 ; resid.=  8.58154903043591E-14
DEBUG_STATS_RL:    cg2d_x (SOLVE_FOR_PRESSURE)  min= -1.34862167594737E+01
DEBUG_STATS_RL:    cg2d_x (SOLVE_FOR_PRESSURE)  max=  7.24469671077119E+00
DEBUG_STATS_RL:    cg2d_x (SOLVE_FOR_PRESSURE) mean= -1.52214533169379E+00
DEBUG_STATS_RL:    cg2d_x (SOLVE_FOR_PRESSURE) S.D.=  5.93354206447763E+00
(PID.TID 0000.0001)      cg2d_init_res =   8.54307165117878E-01
(PID.TID 0000.0001)      cg2d_iters(min,last) =      -1     136
(PID.TID 0000.0001)      cg2d_last_res =   8.58154903043591E-14
(PID.TID 0000.0001) // =======================================================
(PID.TID 0000.0001) // Begin MONITOR dynamic field statistics
(PID.TID 0000.0001) // =======================================================
(PID.TID 0000.0001) %MON time_tsnumber                =                    12
(PID.TID 0000.0001) %MON time_secondsf                =   1.0368000000000E+06
(PID.TID 0000.0001) %MON dynstat_eta_max              =   7.3850119375848E-01
(PID.TID 0000.0001) %MON dynstat_eta_min              =  -1.3747417695693E+00
(PID.TID 0000.0001) %MON dynstat_eta_mean             =  -8.3156805807369E-04
(PID.TID 0000.0001) %MON dynstat_eta_sd               =   5.3658460395046E-01
(PID.TID 0000.0001) %MON dynstat_eta_del2             =   1.7439910540530E-03
(PID.TID 0000.0001) %MON dynstat_uvel_max             =   1.8494105704676E-01
(PID.TID 0000.0001) %MON dynstat_uvel_min             =  -9.6008820991054E-02
(PID.TID 0000.0001) %MON dynstat_uvel_mean            =   5.4073609535580E-04
(PID.TID 0000.0001) %MON dynstat_uvel_sd              =   1.4142764573268E-02
(PID.TID 0000.0001) %MON dynstat_uvel_del2            =   8.9841846317636E-05
(PID.TID 0000.0001) %MON dynstat_vvel_max             =   1.0447487281115E-01
(PID.TID 0000.0001) %MON dynstat_vvel_min             =  -1.0463237575141E-01
(PID.TID 0000.0001) %MON dynstat_vvel_mean            =  -1.0910237032009E-04
(PID.TID 0000.0001) %MON dynstat_vvel_sd              =   9.6352278992004E-03
(PID.TID 0000.0001) %MON dynstat_vvel_del2            =   9.5799738864581E-05
(PID.TID 0000.0001) %MON dynstat_wvel_max             =   1.9375582113869E-04
(PID.TID 0000.0001) %MON dynstat_wvel_min             =  -1.8761685562991E-04
(PID.TID 0000.0001) %MON dynstat_wvel_mean            =   3.5129474309183E-22
(PID.TID 0000.0001) %MON dynstat_wvel_sd              =   1.9838178275934E-05
(PID.TID 0000.0001) %MON dynstat_wvel_del2            =   2.0952553667615E-07
(PID.TID 0000.0001) %MON dynstat_theta_max            =   2.9829463077472E+01
(PID.TID 0000.0001) %MON dynstat_theta_min            =  -1.9149431945270E+00
(PID.TID 0000.0001) %MON dynstat_theta_mean           =   3.6196626540675E+00
(PID.TID 0000.0001) %MON dynstat_theta_sd             =   4.4150760207495E+00
(PID.TID 0000.0001) %MON dynstat_theta_del2           =   4.9822210569360E-03
(PID.TID 0000.0001) %MON dynstat_salt_max             =   3.7436904364795E+01
(PID.TID 0000.0001) %MON dynstat_salt_min             =   2.9753795883498E+01
(PID.TID 0000.0001) %MON dynstat_salt_mean            =   3.4717973373389E+01
(PID.TID 0000.0001) %MON dynstat_salt_sd              =   2.9617416864932E-01
(PID.TID 0000.0001) %MON dynstat_salt_del2            =   1.0099085820268E-03
(PID.TID 0000.0001) %MON dynstat_sst_max              =   2.9829463077472E+01
(PID.TID 0000.0001) %MON dynstat_sst_min              =  -1.9149431945270E+00
(PID.TID 0000.0001) %MON dynstat_sst_mean             =   1.8628582413899E+01
(PID.TID 0000.0001) %MON dynstat_sst_sd               =   9.0669733918499E+00
(PID.TID 0000.0001) %MON dynstat_sst_del2             =   2.6133217681000E-02
(PID.TID 0000.0001) %MON dynstat_sss_max              =   3.7429624586168E+01
(PID.TID 0000.0001) %MON dynstat_sss_min              =   2.9753795883498E+01
(PID.TID 0000.0001) %MON dynstat_sss_mean             =   3.4854657396125E+01
(PID.TID 0000.0001) %MON dynstat_sss_sd               =   9.6822883618692E-01
(PID.TID 0000.0001) %MON dynstat_sss_del2             =   7.9893782060951E-03
(PID.TID 0000.0001) %MON forcing_qnet_max             =   4.3742086791992E+02
(PID.TID 0000.0001) %MON forcing_qnet_min             =  -1.8188829345703E+02
(PID.TID 0000.0001) %MON forcing_qnet_mean            =  -1.6562573824336E+01
(PID.TID 0000.0001) %MON forcing_qnet_sd              =   1.1061005498176E+02
(PID.TID 0000.0001) %MON forcing_qnet_del2            =   1.0118306891868E+00
(PID.TID 0000.0001) %MON forcing_qsw_max              =   0.0000000000000E+00
(PID.TID 0000.0001) %MON forcing_qsw_min              =   0.0000000000000E+00
(PID.TID 0000.0001) %MON forcing_qsw_mean             =   0.0000000000000E+00
(PID.TID 0000.0001) %MON forcing_qsw_sd               =   0.0000000000000E+00
(PID.TID 0000.0001) %MON forcing_qsw_del2             =   0.0000000000000E+00
(PID.TID 0000.0001) %MON forcing_empmr_max            =   8.1895939748241E-05
(PID.TID 0000.0001) %MON forcing_empmr_min            =  -7.3862861427187E-05
(PID.TID 0000.0001) %MON forcing_empmr_mean           =   8.8385803112860E-07
(PID.TID 0000.0001) %MON forcing_empmr_sd             =   2.8441005317708E-05
(PID.TID 0000.0001) %MON forcing_empmr_del2           =   3.6422974995246E-07
(PID.TID 0000.0001) %MON forcing_fu_max               =   2.7018036246300E-01
(PID.TID 0000.0001) %MON forcing_fu_min               =  -1.6762689054012E-01
(PID.TID 0000.0001) %MON forcing_fu_mean              =   1.6032506436715E-02
(PID.TID 0000.0001) %MON forcing_fu_sd                =   9.0583250401530E-02
(PID.TID 0000.0001) %MON forcing_fu_del2              =   6.9548641877095E-04
(PID.TID 0000.0001) %MON forcing_fv_max               =   2.2560169994831E-01
(PID.TID 0000.0001) %MON forcing_fv_min               =  -1.8047553002834E-01
(PID.TID 0000.0001) %MON forcing_fv_mean              =  -5.5539478469483E-03
(PID.TID 0000.0001) %MON forcing_fv_sd                =   4.7114745146942E-02
(PID.TID 0000.0001) %MON forcing_fv_del2              =   4.7455200431690E-04
(PID.TID 0000.0001) %MON trAdv_CFL_u_max              =   5.2282030605529E-02
(PID.TID 0000.0001) %MON trAdv_CFL_v_max              =   2.1051982344016E-02
(PID.TID 0000.0001) %MON trAdv_CFL_w_max              =   6.4403289894157E-02
(PID.TID 0000.0001) %MON advcfl_uvel_max              =   5.3645304504459E-02
(PID.TID 0000.0001) %MON advcfl_vvel_max              =   2.0328392506944E-02
(PID.TID 0000.0001) %MON advcfl_wvel_max              =   6.6915466522659E-02
(PID.TID 0000.0001) %MON advcfl_W_hf_max              =   7.5720133170378E-02
(PID.TID 0000.0001) %MON pe_b_mean                    =   3.6843311513643E-04
(PID.TID 0000.0001) %MON ke_max                       =   1.7215145636750E-02
(PID.TID 0000.0001) %MON ke_mean                      =   1.3268816836086E-04
(PID.TID 0000.0001) %MON ke_vol                       =   1.3226782436723E+18
(PID.TID 0000.0001) %MON vort_r_min                   =  -4.1227819071679E-07
(PID.TID 0000.0001) %MON vort_r_max                   =   3.3410952778325E-07
(PID.TID 0000.0001) %MON vort_a_mean                  =  -2.5274807219875E-05
(PID.TID 0000.0001) %MON vort_a_sd                    =   7.3604412497726E-05
(PID.TID 0000.0001) %MON vort_p_mean                  =  -3.1845655575730E-05
(PID.TID 0000.0001) %MON vort_p_sd                    =   1.3162384873169E-04
(PID.TID 0000.0001) %MON surfExpan_theta_mean         =   4.8641327612709E-07
(PID.TID 0000.0001) %MON surfExpan_salt_mean          =  -6.1887809511792E-08
(PID.TID 0000.0001) // =======================================================
(PID.TID 0000.0001) // End MONITOR dynamic field statistics
(PID.TID 0000.0001) // =======================================================
 EXTERNAL_FIELDS_LOAD,        12 : iP,iLd,i0,i1=   12    1   12    1 ; Wght=  0.1000000000  0.9000000000
 EXTERNAL_FIELDS_LOAD: (fu0,1),fu,fv= -4.5368E-02 -3.5633E-02 -3.6606E-02 -5.8556E-02
 EXTERNAL_FIELDS_LOAD: SST,SSS,Q,E-P=  7.7737E-01  3.4644E+01  2.6564E+02  1.1478E-05
DEBUG_STATS_RL:          Uvel (THERMODYNAMICS)  min= -9.60088209910535E-02
DEBUG_STATS_RL:          Uvel (THERMODYNAMICS)  max=  1.84941057046763E-01
DEBUG_STATS_RL:          Uvel (THERMODYNAMICS) mean=  6.04912570690693E-03
DEBUG_STATS_RL:          Uvel (THERMODYNAMICS) S.D.=  2.37088932567715E-02
DEBUG_STATS_RL:          Vvel (THERMODYNAMICS)  min= -1.04632375751413E-01
DEBUG_STATS_RL:          Vvel (THERMODYNAMICS)  max=  1.04474872811145E-01
DEBUG_STATS_RL:          Vvel (THERMODYNAMICS) mean= -8.96496362659957E-04
DEBUG_STATS_RL:          Vvel (THERMODYNAMICS) S.D.=  1.45384496013212E-02
DEBUG_STATS_RL:          Wvel (THERMODYNAMICS)  min= -1.87616855629914E-04
DEBUG_STATS_RL:          Wvel (THERMODYNAMICS)  max=  1.93755821138692E-04
DEBUG_STATS_RL:          Wvel (THERMODYNAMICS) mean= -4.09165195331474E-07
DEBUG_STATS_RL:          Wvel (THERMODYNAMICS) S.D.=  1.74723912203335E-05
DEBUG_STATS_RL:         Theta (THERMODYNAMICS)  min= -1.94954732494151E+00
DEBUG_STATS_RL:         Theta (THERMODYNAMICS)  max=  2.98326116667118E+01
DEBUG_STATS_RL:         Theta (THERMODYNAMICS) mean=  3.20684277895816E+00
DEBUG_STATS_RL:         Theta (THERMODYNAMICS) S.D.=  5.85365819429697E+00
DEBUG_STATS_RL:          Salt (THERMODYNAMICS)  min= -5.20417042793042E-18
DEBUG_STATS_RL:          Salt (THERMODYNAMICS)  max=  3.74372265841243E+01
DEBUG_STATS_RL:          Salt (THERMODYNAMICS) mean=  1.88451963943879E+01
DEBUG_STATS_RL:          Salt (THERMODYNAMICS) S.D.=  1.73006714507836E+01
DEBUG_STATS_RL:         GtNm1 (THERMODYNAMICS)  min= -5.48274845583245E-06
DEBUG_STATS_RL:         GtNm1 (THERMODYNAMICS)  max=  4.89614214712263E-06
DEBUG_STATS_RL:         GtNm1 (THERMODYNAMICS) mean=  1.94389510928752E-08
DEBUG_STATS_RL:         GtNm1 (THERMODYNAMICS) S.D.=  2.60815790773807E-07
DEBUG_STATS_RL:         GsNm1 (THERMODYNAMICS)  min= -1.28648170179327E-06
DEBUG_STATS_RL:         GsNm1 (THERMODYNAMICS)  max=  1.38925130779151E-06
DEBUG_STATS_RL:         GsNm1 (THERMODYNAMICS) mean=  2.54651100476511E-10
DEBUG_STATS_RL:         GsNm1 (THERMODYNAMICS) S.D.=  2.39880886350317E-08
DEBUG_STATS_RL:                EtaN (DYNAMICS)  min= -1.37474176956932E+00
DEBUG_STATS_RL:                EtaN (DYNAMICS)  max=  7.38501193758481E-01
DEBUG_STATS_RL:                EtaN (DYNAMICS) mean= -1.55162623006503E-01
DEBUG_STATS_RL:                EtaN (DYNAMICS) S.D.=  6.04846285879474E-01
DEBUG_STATS_RL:                Uvel (DYNAMICS)  min= -9.60088209910535E-02
DEBUG_STATS_RL:                Uvel (DYNAMICS)  max=  1.84941057046763E-01
DEBUG_STATS_RL:                Uvel (DYNAMICS) mean=  6.04912570690693E-03
DEBUG_STATS_RL:                Uvel (DYNAMICS) S.D.=  2.37088932567715E-02
DEBUG_STATS_RL:                Vvel (DYNAMICS)  min= -1.04632375751413E-01
DEBUG_STATS_RL:                Vvel (DYNAMICS)  max=  1.04474872811145E-01
DEBUG_STATS_RL:                Vvel (DYNAMICS) mean= -8.96496362659957E-04
DEBUG_STATS_RL:                Vvel (DYNAMICS) S.D.=  1.45384496013212E-02
DEBUG_STATS_RL:                Wvel (DYNAMICS)  min= -1.87616855629914E-04
DEBUG_STATS_RL:                Wvel (DYNAMICS)  max=  1.93755821138692E-04
DEBUG_STATS_RL:                Wvel (DYNAMICS) mean= -4.09165195331474E-07
DEBUG_STATS_RL:                Wvel (DYNAMICS) S.D.=  1.74723912203335E-05
DEBUG_STATS_RL:               Theta (DYNAMICS)  min= -1.94954732494151E+00
DEBUG_STATS_RL:               Theta (DYNAMICS)  max=  2.98326116667118E+01
DEBUG_STATS_RL:               Theta (DYNAMICS) mean=  3.20684277895816E+00
DEBUG_STATS_RL:               Theta (DYNAMICS) S.D.=  5.85365819429697E+00
DEBUG_STATS_RL:                Salt (DYNAMICS)  min= -5.20417042793042E-18
DEBUG_STATS_RL:                Salt (DYNAMICS)  max=  3.74372265841243E+01
DEBUG_STATS_RL:                Salt (DYNAMICS) mean=  1.88451963943879E+01
DEBUG_STATS_RL:                Salt (DYNAMICS) S.D.=  1.73006714507836E+01
DEBUG_STATS_RL:                  Gu (DYNAMICS)  min= -9.55895332172865E-02
DEBUG_STATS_RL:                  Gu (DYNAMICS)  max=  1.90127026440839E-01
DEBUG_STATS_RL:                  Gu (DYNAMICS) mean=  6.29414402303442E-03
DEBUG_STATS_RL:                  Gu (DYNAMICS) S.D.=  2.49292680547984E-02
DEBUG_STATS_RL:                  Gv (DYNAMICS)  min= -9.38060193717501E-02
DEBUG_STATS_RL:                  Gv (DYNAMICS)  max=  1.03987100597729E-01
DEBUG_STATS_RL:                  Gv (DYNAMICS) mean=  1.51820792823503E-03
DEBUG_STATS_RL:                  Gv (DYNAMICS) S.D.=  1.41526931657588E-02
DEBUG_STATS_RL:               GuNm1 (DYNAMICS)  min= -6.53478349997876E-06
DEBUG_STATS_RL:               GuNm1 (DYNAMICS)  max=  6.81907713677718E-06
DEBUG_STATS_RL:               GuNm1 (DYNAMICS) mean= -2.24877185628324E-08
DEBUG_STATS_RL:               GuNm1 (DYNAMICS) S.D.=  1.10522727543245E-06
DEBUG_STATS_RL:               GvNm1 (DYNAMICS)  min= -8.85037320338308E-06
DEBUG_STATS_RL:               GvNm1 (DYNAMICS)  max=  1.66827012616846E-05
DEBUG_STATS_RL:               GvNm1 (DYNAMICS) mean=  7.74508363617902E-07
DEBUG_STATS_RL:               GvNm1 (DYNAMICS) S.D.=  2.59376404226298E-06
DEBUG_STATS_RL:               GtNm1 (DYNAMICS)  min= -5.48274845583245E-06
DEBUG_STATS_RL:               GtNm1 (DYNAMICS)  max=  4.89614214712263E-06
DEBUG_STATS_RL:               GtNm1 (DYNAMICS) mean=  1.94389510928752E-08
DEBUG_STATS_RL:               GtNm1 (DYNAMICS) S.D.=  2.60815790773807E-07
DEBUG_STATS_RL:               GsNm1 (DYNAMICS)  min= -1.28648170179327E-06
DEBUG_STATS_RL:               GsNm1 (DYNAMICS)  max=  1.38925130779151E-06
DEBUG_STATS_RL:               GsNm1 (DYNAMICS) mean=  2.54651100476511E-10
DEBUG_STATS_RL:               GsNm1 (DYNAMICS) S.D.=  2.39880886350317E-08
DEBUG_STATS_RL:    cg2d_b (SOLVE_FOR_PRESSURE)  min= -1.60246099459308E+04
DEBUG_STATS_RL:    cg2d_b (SOLVE_FOR_PRESSURE)  max=  1.31315046827983E+04
DEBUG_STATS_RL:    cg2d_b (SOLVE_FOR_PRESSURE) mean=  8.68494721172755E-01
DEBUG_STATS_RL:    cg2d_b (SOLVE_FOR_PRESSURE) S.D.=  3.14638136118732E+03
 cg2d: Sum(rhs),rhsMax =   1.25467345932276E-01  1.05253928595143E+00
(PID.TID 0000.0001)  cg2d: iter=     1 ; resid.=  1.98409029012654E-01
(PID.TID 0000.0001)  cg2d: iter=     2 ; resid.=  1.32410824471407E-01
(PID.TID 0000.0001)  cg2d: iter=     3 ; resid.=  1.65966741967247E-01
(PID.TID 0000.0001)  cg2d: iter=     4 ; resid.=  1.49070753111465E-01
(PID.TID 0000.0001)  cg2d: iter=     5 ; resid.=  1.31443439571373E-01
(PID.TID 0000.0001)  cg2d: iter=     6 ; resid.=  1.08010030026651E-01
(PID.TID 0000.0001)  cg2d: iter=     7 ; resid.=  9.01141097869192E-02
(PID.TID 0000.0001)  cg2d: iter=     8 ; resid.=  6.62647522030057E-02
(PID.TID 0000.0001)  cg2d: iter=     9 ; resid.=  5.13916162609701E-02
(PID.TID 0000.0001)  cg2d: iter=    10 ; resid.=  4.26208994931316E-02
(PID.TID 0000.0001)  cg2d: iter=    11 ; resid.=  4.09786899833156E-02
(PID.TID 0000.0001)  cg2d: iter=    12 ; resid.=  3.45283599242334E-02
(PID.TID 0000.0001)  cg2d: iter=    13 ; resid.=  2.68029825213158E-02
(PID.TID 0000.0001)  cg2d: iter=    14 ; resid.=  2.18121834437519E-02
(PID.TID 0000.0001)  cg2d: iter=    15 ; resid.=  1.84790810388797E-02
(PID.TID 0000.0001)  cg2d: iter=    16 ; resid.=  1.52780591298203E-02
(PID.TID 0000.0001)  cg2d: iter=    17 ; resid.=  1.42647592183207E-02
(PID.TID 0000.0001)  cg2d: iter=    18 ; resid.=  1.26575722991085E-02
(PID.TID 0000.0001)  cg2d: iter=    19 ; resid.=  1.07203852774797E-02
(PID.TID 0000.0001)  cg2d: iter=    20 ; resid.=  8.55589645664465E-03
(PID.TID 0000.0001)  cg2d: iter=    21 ; resid.=  6.25095712528365E-03
(PID.TID 0000.0001)  cg2d: iter=    22 ; resid.=  5.06226620560898E-03
(PID.TID 0000.0001)  cg2d: iter=    23 ; resid.=  4.22865321629183E-03
(PID.TID 0000.0001)  cg2d: iter=    24 ; resid.=  3.53459627223349E-03
(PID.TID 0000.0001)  cg2d: iter=    25 ; resid.=  2.84638607490532E-03
(PID.TID 0000.0001)  cg2d: iter=    26 ; resid.=  2.26038769055189E-03
(PID.TID 0000.0001)  cg2d: iter=    27 ; resid.=  2.00106557423183E-03
(PID.TID 0000.0001)  cg2d: iter=    28 ; resid.=  1.92370697418267E-03
(PID.TID 0000.0001)  cg2d: iter=    29 ; resid.=  1.54008892668553E-03
(PID.TID 0000.0001)  cg2d: iter=    30 ; resid.=  1.11844110542262E-03
(PID.TID 0000.0001)  cg2d: iter=    31 ; resid.=  8.65900410725353E-04
(PID.TID 0000.0001)  cg2d: iter=    32 ; resid.=  6.79659687006596E-04
(PID.TID 0000.0001)  cg2d: iter=    33 ; resid.=  5.32564196952095E-04
(PID.TID 0000.0001)  cg2d: iter=    34 ; resid.=  4.46320876059096E-04
(PID.TID 0000.0001)  cg2d: iter=    35 ; resid.=  3.61738200184850E-04
(PID.TID 0000.0001)  cg2d: iter=    36 ; resid.=  3.04612202023156E-04
(PID.TID 0000.0001)  cg2d: iter=    37 ; resid.=  2.50942376733227E-04
(PID.TID 0000.0001)  cg2d: iter=    38 ; resid.=  2.11004726178850E-04
(PID.TID 0000.0001)  cg2d: iter=    39 ; resid.=  1.63751109140804E-04
(PID.TID 0000.0001)  cg2d: iter=    40 ; resid.=  1.20407901765471E-04
(PID.TID 0000.0001)  cg2d: iter=    41 ; resid.=  9.44143700874210E-05
(PID.TID 0000.0001)  cg2d: iter=    42 ; resid.=  9.13091696431321E-05
(PID.TID 0000.0001)  cg2d: iter=    43 ; resid.=  8.97274618225348E-05
(PID.TID 0000.0001)  cg2d: iter=    44 ; resid.=  7.22558004874755E-05
(PID.TID 0000.0001)  cg2d: iter=    45 ; resid.=  5.38179761068859E-05
(PID.TID 0000.0001)  cg2d: iter=    46 ; resid.=  4.32413540763730E-05
(PID.TID 0000.0001)  cg2d: iter=    47 ; resid.=  3.69589469370107E-05
(PID.TID 0000.0001)  cg2d: iter=    48 ; resid.=  3.20069960590952E-05
(PID.TID 0000.0001)  cg2d: iter=    49 ; resid.=  2.51720526074117E-05
(PID.TID 0000.0001)  cg2d: iter=    50 ; resid.=  2.00984904200134E-05
(PID.TID 0000.0001)  cg2d: iter=    51 ; resid.=  1.71032100212056E-05
(PID.TID 0000.0001)  cg2d: iter=    52 ; resid.=  1.56082961209733E-05
(PID.TID 0000.0001)  cg2d: iter=    53 ; resid.=  1.35868356578822E-05
(PID.TID 0000.0001)  cg2d: iter=    54 ; resid.=  1.13379388272538E-05
(PID.TID 0000.0001)  cg2d: iter=    55 ; resid.=  9.44564561805571E-06
(PID.TID 0000.0001)  cg2d: iter=    56 ; resid.=  7.94222621042463E-06
(PID.TID 0000.0001)  cg2d: iter=    57 ; resid.=  6.49686961882948E-06
(PID.TID 0000.0001)  cg2d: iter=    58 ; resid.=  5.30956028144816E-06
(PID.TID 0000.0001)  cg2d: iter=    59 ; resid.=  4.57266373495600E-06
(PID.TID 0000.0001)  cg2d: iter=    60 ; resid.=  3.74560308370469E-06
(PID.TID 0000.0001)  cg2d: iter=    61 ; resid.=  3.20186220790301E-06
(PID.TID 0000.0001)  cg2d: iter=    62 ; resid.=  2.72369138141311E-06
(PID.TID 0000.0001)  cg2d: iter=    63 ; resid.=  2.37696240691990E-06
(PID.TID 0000.0001)  cg2d: iter=    64 ; resid.=  2.18490437624012E-06
(PID.TID 0000.0001)  cg2d: iter=    65 ; resid.=  1.86289588223855E-06
(PID.TID 0000.0001)  cg2d: iter=    66 ; resid.=  1.34192278413929E-06
(PID.TID 0000.0001)  cg2d: iter=    67 ; resid.=  1.00665225166778E-06
(PID.TID 0000.0001)  cg2d: iter=    68 ; resid.=  8.79695953144989E-07
(PID.TID 0000.0001)  cg2d: iter=    69 ; resid.=  7.45465138763398E-07
(PID.TID 0000.0001)  cg2d: iter=    70 ; resid.=  6.44809046760330E-07
(PID.TID 0000.0001)  cg2d: iter=    71 ; resid.=  5.21178486990993E-07
(PID.TID 0000.0001)  cg2d: iter=    72 ; resid.=  4.44250360092073E-07
(PID.TID 0000.0001)  cg2d: iter=    73 ; resid.=  4.12225592569761E-07
(PID.TID 0000.0001)  cg2d: iter=    74 ; resid.=  3.71567611967897E-07
(PID.TID 0000.0001)  cg2d: iter=    75 ; resid.=  2.87826854034526E-07
(PID.TID 0000.0001)  cg2d: iter=    76 ; resid.=  2.39840419574997E-07
(PID.TID 0000.0001)  cg2d: iter=    77 ; resid.=  1.93292472094108E-07
(PID.TID 0000.0001)  cg2d: iter=    78 ; resid.=  1.66386180522101E-07
(PID.TID 0000.0001)  cg2d: iter=    79 ; resid.=  1.50079851385397E-07
(PID.TID 0000.0001)  cg2d: iter=    80 ; resid.=  1.24793069868411E-07
(PID.TID 0000.0001)  cg2d: iter=    81 ; resid.=  9.98885450524876E-08
(PID.TID 0000.0001)  cg2d: iter=    82 ; resid.=  7.58156481197092E-08
(PID.TID 0000.0001)  cg2d: iter=    83 ; resid.=  5.54846065368668E-08
(PID.TID 0000.0001)  cg2d: iter=    84 ; resid.=  4.24982977164658E-08
(PID.TID 0000.0001)  cg2d: iter=    85 ; resid.=  3.21892703969952E-08
(PID.TID 0000.0001)  cg2d: iter=    86 ; resid.=  2.53545973806448E-08
(PID.TID 0000.0001)  cg2d: iter=    87 ; resid.=  2.08716042501882E-08
(PID.TID 0000.0001)  cg2d: iter=    88 ; resid.=  1.66945491933457E-08
(PID.TID 0000.0001)  cg2d: iter=    89 ; resid.=  1.39579603386490E-08
(PID.TID 0000.0001)  cg2d: iter=    90 ; resid.=  1.09525856674187E-08
(PID.TID 0000.0001)  cg2d: iter=    91 ; resid.=  7.44331767436558E-09
(PID.TID 0000.0001)  cg2d: iter=    92 ; resid.=  5.50385580284318E-09
(PID.TID 0000.0001)  cg2d: iter=    93 ; resid.=  4.26457503224835E-09
(PID.TID 0000.0001)  cg2d: iter=    94 ; resid.=  3.08604126343237E-09
(PID.TID 0000.0001)  cg2d: iter=    95 ; resid.=  2.25338494071487E-09
(PID.TID 0000.0001)  cg2d: iter=    96 ; resid.=  1.69318212311878E-09
(PID.TID 0000.0001)  cg2d: iter=    97 ; resid.=  1.26793506851914E-09
(PID.TID 0000.0001)  cg2d: iter=    98 ; resid.=  1.01845993976103E-09
(PID.TID 0000.0001)  cg2d: iter=    99 ; resid.=  8.05311952656121E-10
(PID.TID 0000.0001)  cg2d: iter=   100 ; resid.=  6.18092020325537E-10
(PID.TID 0000.0001)  cg2d: iter=   101 ; resid.=  4.89682224040412E-10
(PID.TID 0000.0001)  cg2d: iter=   102 ; resid.=  4.09826556862334E-10
(PID.TID 0000.0001)  cg2d: iter=   103 ; resid.=  3.72286914550003E-10
(PID.TID 0000.0001)  cg2d: iter=   104 ; resid.=  3.24433148018254E-10
(PID.TID 0000.0001)  cg2d: iter=   105 ; resid.=  2.64538169164163E-10
(PID.TID 0000.0001)  cg2d: iter=   106 ; resid.=  2.11933088609609E-10
(PID.TID 0000.0001)  cg2d: iter=   107 ; resid.=  1.75793484329338E-10
(PID.TID 0000.0001)  cg2d: iter=   108 ; resid.=  1.48587548028309E-10
(PID.TID 0000.0001)  cg2d: iter=   109 ; resid.=  1.20461980523939E-10
(PID.TID 0000.0001)  cg2d: iter=   110 ; resid.=  9.31908974480005E-11
(PID.TID 0000.0001)  cg2d: iter=   111 ; resid.=  7.20222931121668E-11
(PID.TID 0000.0001)  cg2d: iter=   112 ; resid.=  5.68576502435129E-11
(PID.TID 0000.0001)  cg2d: iter=   113 ; resid.=  4.14075664326289E-11
(PID.TID 0000.0001)  cg2d: iter=   114 ; resid.=  3.08795978733507E-11
(PID.TID 0000.0001)  cg2d: iter=   115 ; resid.=  2.41443563332388E-11
(PID.TID 0000.0001)  cg2d: iter=   116 ; resid.=  1.96431195978741E-11
(PID.TID 0000.0001)  cg2d: iter=   117 ; resid.=  1.63864601388539E-11
(PID.TID 0000.0001)  cg2d: iter=   118 ; resid.=  1.31302171813561E-11
(PID.TID 0000.0001)  cg2d: iter=   119 ; resid.=  1.04836998983448E-11
(PID.TID 0000.0001)  cg2d: iter=   120 ; resid.=  7.84304981438722E-12
(PID.TID 0000.0001)  cg2d: iter=   121 ; resid.=  5.59620989757227E-12
(PID.TID 0000.0001)  cg2d: iter=   122 ; resid.=  3.79698100724398E-12
(PID.TID 0000.0001)  cg2d: iter=   123 ; resid.=  2.77103615256109E-12
(PID.TID 0000.0001)  cg2d: iter=   124 ; resid.=  1.96219366347324E-12
(PID.TID 0000.0001)  cg2d: iter=   125 ; resid.=  1.37878249649052E-12
(PID.TID 0000.0001)  cg2d: iter=   126 ; resid.=  9.99368862610979E-13
(PID.TID 0000.0001)  cg2d: iter=   127 ; resid.=  7.02289708573396E-13
(PID.TID 0000.0001)  cg2d: iter=   128 ; resid.=  5.28209607023583E-13
(PID.TID 0000.0001)  cg2d: iter=   129 ; resid.=  4.17245760291466E-13
(PID.TID 0000.0001)  cg2d: iter=   130 ; resid.=  3.43113950198721E-13
(PID.TID 0000.0001)  cg2d: iter=   131 ; resid.=  2.80810817470427E-13
(PID.TID 0000.0001)  cg2d: iter=   132 ; resid.=  2.28118386994223E-13
(PID.TID 0000.0001)  cg2d: iter=   133 ; resid.=  1.66635773655640E-13
(PID.TID 0000.0001)  cg2d: iter=   134 ; resid.=  1.25903671632762E-13
(PID.TID 0000.0001)  cg2d: iter=   135 ; resid.=  9.38546103249873E-14
DEBUG_STATS_RL:    cg2d_x (SOLVE_FOR_PRESSURE)  min= -1.37701451063693E+01
DEBUG_STATS_RL:    cg2d_x (SOLVE_FOR_PRESSURE)  max=  7.23325634266965E+00
DEBUG_STATS_RL:    cg2d_x (SOLVE_FOR_PRESSURE) mean= -1.53976108222006E+00
DEBUG_STATS_RL:    cg2d_x (SOLVE_FOR_PRESSURE) S.D.=  6.03166839918138E+00
(PID.TID 0000.0001)      cg2d_init_res =   7.75820964999925E-01
(PID.TID 0000.0001)      cg2d_iters(min,last) =      -1     135
(PID.TID 0000.0001)      cg2d_last_res =   9.38546103249873E-14
(PID.TID 0000.0001) // =======================================================
(PID.TID 0000.0001) // Begin MONITOR dynamic field statistics
(PID.TID 0000.0001) // =======================================================
(PID.TID 0000.0001) %MON time_tsnumber                =                    13
(PID.TID 0000.0001) %MON time_secondsf                =   1.1232000000000E+06
(PID.TID 0000.0001) %MON dynstat_eta_max              =   7.3733499925279E-01
(PID.TID 0000.0001) %MON dynstat_eta_min              =  -1.4036845164494E+00
(PID.TID 0000.0001) %MON dynstat_eta_mean             =  -9.0616655175347E-04
(PID.TID 0000.0001) %MON dynstat_eta_sd               =   5.4624696150219E-01
(PID.TID 0000.0001) %MON dynstat_eta_del2             =   1.7216340775139E-03
(PID.TID 0000.0001) %MON dynstat_uvel_max             =   1.9032648619995E-01
(PID.TID 0000.0001) %MON dynstat_uvel_min             =  -1.0055621880297E-01
(PID.TID 0000.0001) %MON dynstat_uvel_mean            =   6.2118893381958E-04
(PID.TID 0000.0001) %MON dynstat_uvel_sd              =   1.4826102114852E-02
(PID.TID 0000.0001) %MON dynstat_uvel_del2            =   9.1727222061242E-05
(PID.TID 0000.0001) %MON dynstat_vvel_max             =   1.1013111016142E-01
(PID.TID 0000.0001) %MON dynstat_vvel_min             =  -9.9429296430034E-02
(PID.TID 0000.0001) %MON dynstat_vvel_mean            =  -3.2862173506609E-05
(PID.TID 0000.0001) %MON dynstat_vvel_sd              =   9.2829242683210E-03
(PID.TID 0000.0001) %MON dynstat_vvel_del2            =   9.1814968067645E-05
(PID.TID 0000.0001) %MON dynstat_wvel_max             =   1.7614016726078E-04
(PID.TID 0000.0001) %MON dynstat_wvel_min             =  -1.9178247967882E-04
(PID.TID 0000.0001) %MON dynstat_wvel_mean            =   6.9577722008732E-24
(PID.TID 0000.0001) %MON dynstat_wvel_sd              =   1.8574140855276E-05
(PID.TID 0000.0001) %MON dynstat_wvel_del2            =   1.9326231465840E-07
(PID.TID 0000.0001) %MON dynstat_theta_max            =   2.9832611666712E+01
(PID.TID 0000.0001) %MON dynstat_theta_min            =  -1.9495473249415E+00
(PID.TID 0000.0001) %MON dynstat_theta_mean           =   3.6197418436847E+00
(PID.TID 0000.0001) %MON dynstat_theta_sd             =   4.4151417568967E+00
(PID.TID 0000.0001) %MON dynstat_theta_del2           =   4.9504607870390E-03
(PID.TID 0000.0001) %MON dynstat_salt_max             =   3.7437226584124E+01
(PID.TID 0000.0001) %MON dynstat_salt_min             =   2.9755265200925E+01
(PID.TID 0000.0001) %MON dynstat_salt_mean            =   3.4717975689853E+01
(PID.TID 0000.0001) %MON dynstat_salt_sd              =   2.9618266363947E-01
(PID.TID 0000.0001) %MON dynstat_salt_del2            =   1.0105475593134E-03
(PID.TID 0000.0001) %MON dynstat_sst_max              =   2.9832611666712E+01
(PID.TID 0000.0001) %MON dynstat_sst_min              =  -1.9495473249415E+00
(PID.TID 0000.0001) %MON dynstat_sst_mean             =   1.8639829457971E+01
(PID.TID 0000.0001) %MON dynstat_sst_sd               =   9.0617906517607E+00
(PID.TID 0000.0001) %MON dynstat_sst_del2             =   2.6155256951305E-02
(PID.TID 0000.0001) %MON dynstat_sss_max              =   3.7429397757440E+01
(PID.TID 0000.0001) %MON dynstat_sss_min              =   2.9755265200925E+01
(PID.TID 0000.0001) %MON dynstat_sss_mean             =   3.4854891443250E+01
(PID.TID 0000.0001) %MON dynstat_sss_sd               =   9.6865577648951E-01
(PID.TID 0000.0001) %MON dynstat_sss_del2             =   7.9929306647845E-03
(PID.TID 0000.0001) %MON forcing_qnet_max             =   4.3846905517578E+02
(PID.TID 0000.0001) %MON forcing_qnet_min             =  -1.8174754943848E+02
(PID.TID 0000.0001) %MON forcing_qnet_mean            =  -1.6550061868513E+01
(PID.TID 0000.0001) %MON forcing_qnet_sd              =   1.1042168913970E+02
(PID.TID 0000.0001) %MON forcing_qnet_del2            =   1.0147687802669E+00
(PID.TID 0000.0001) %MON forcing_qsw_max              =   0.0000000000000E+00
(PID.TID 0000.0001) %MON forcing_qsw_min              =   0.0000000000000E+00
(PID.TID 0000.0001) %MON forcing_qsw_mean             =   0.0000000000000E+00
(PID.TID 0000.0001) %MON forcing_qsw_sd               =   0.0000000000000E+00
(PID.TID 0000.0001) %MON forcing_qsw_del2             =   0.0000000000000E+00
(PID.TID 0000.0001) %MON forcing_empmr_max            =   8.1897606207804E-05
(PID.TID 0000.0001) %MON forcing_empmr_min            =  -7.4245208736556E-05
(PID.TID 0000.0001) %MON forcing_empmr_mean           =   8.9362778887410E-07
(PID.TID 0000.0001) %MON forcing_empmr_sd             =   2.8524757575518E-05
(PID.TID 0000.0001) %MON forcing_empmr_del2           =   3.6489898148972E-07
(PID.TID 0000.0001) %MON forcing_fu_max               =   2.7026165127754E-01
(PID.TID 0000.0001) %MON forcing_fu_min               =  -1.6844031065702E-01
(PID.TID 0000.0001) %MON forcing_fu_mean              =   1.6024813615678E-02
(PID.TID 0000.0001) %MON forcing_fu_sd                =   9.0687065718989E-02
(PID.TID 0000.0001) %MON forcing_fu_del2              =   7.0218537639472E-04
(PID.TID 0000.0001) %MON forcing_fv_max               =   2.2748160511255E-01
(PID.TID 0000.0001) %MON forcing_fv_min               =  -1.7989087253809E-01
(PID.TID 0000.0001) %MON forcing_fv_mean              =  -5.4801853200875E-03
(PID.TID 0000.0001) %MON forcing_fv_sd                =   4.7378348929193E-02
(PID.TID 0000.0001) %MON forcing_fv_del2              =   4.8014067006239E-04
(PID.TID 0000.0001) %MON trAdv_CFL_u_max              =   5.3656200249481E-02
(PID.TID 0000.0001) %MON trAdv_CFL_v_max              =   2.0466202985106E-02
(PID.TID 0000.0001) %MON trAdv_CFL_w_max              =   6.3307693226495E-02
(PID.TID 0000.0001) %MON advcfl_uvel_max              =   5.4680220993527E-02
(PID.TID 0000.0001) %MON advcfl_vvel_max              =   2.1396708413710E-02
(PID.TID 0000.0001) %MON advcfl_wvel_max              =   6.1656631847208E-02
(PID.TID 0000.0001) %MON advcfl_W_hf_max              =   6.9769346563946E-02
(PID.TID 0000.0001) %MON pe_b_mean                    =   3.8182157412808E-04
(PID.TID 0000.0001) %MON ke_max                       =   1.7996429478656E-02
(PID.TID 0000.0001) %MON ke_mean                      =   1.3872699937875E-04
(PID.TID 0000.0001) %MON ke_vol                       =   1.3226782436723E+18
(PID.TID 0000.0001) %MON vort_r_min                   =  -4.2005398290390E-07
(PID.TID 0000.0001) %MON vort_r_max                   =   3.4978797291388E-07
(PID.TID 0000.0001) %MON vort_a_mean                  =  -2.5274807179639E-05
(PID.TID 0000.0001) %MON vort_a_sd                    =   7.3604417726542E-05
(PID.TID 0000.0001) %MON vort_p_mean                  =  -3.1845655525034E-05
(PID.TID 0000.0001) %MON vort_p_sd                    =   1.3162375209663E-04
(PID.TID 0000.0001) %MON surfExpan_theta_mean         =   4.7760796127491E-07
(PID.TID 0000.0001) %MON surfExpan_salt_mean          =  -5.7527741906737E-08
(PID.TID 0000.0001) // =======================================================
(PID.TID 0000.0001) // End MONITOR dynamic field statistics
(PID.TID 0000.0001) // =======================================================
 EXTERNAL_FIELDS_LOAD,        13 : iP,iLd,i0,i1=   12    1   12    1 ; Wght=  0.0666666667  0.9333333333
 EXTERNAL_FIELDS_LOAD: (fu0,1),fu,fv= -4.5368E-02 -3.5633E-02 -3.6282E-02 -5.8123E-02
 EXTERNAL_FIELDS_LOAD: SST,SSS,Q,E-P=  8.3772E-01  3.4668E+01  2.6568E+02  1.1531E-05
DEBUG_STATS_RL:          Uvel (THERMODYNAMICS)  min= -1.00556218802975E-01
DEBUG_STATS_RL:          Uvel (THERMODYNAMICS)  max=  1.90326486199950E-01
DEBUG_STATS_RL:          Uvel (THERMODYNAMICS) mean=  6.36720506403810E-03
DEBUG_STATS_RL:          Uvel (THERMODYNAMICS) S.D.=  2.47834299741062E-02
DEBUG_STATS_RL:          Vvel (THERMODYNAMICS)  min= -9.94292964300345E-02
DEBUG_STATS_RL:          Vvel (THERMODYNAMICS)  max=  1.10131110161418E-01
DEBUG_STATS_RL:          Vvel (THERMODYNAMICS) mean= -4.50640874633488E-04
DEBUG_STATS_RL:          Vvel (THERMODYNAMICS) S.D.=  1.41968601966837E-02
DEBUG_STATS_RL:          Wvel (THERMODYNAMICS)  min= -1.91782479678822E-04
DEBUG_STATS_RL:          Wvel (THERMODYNAMICS)  max=  1.76140167260784E-04
DEBUG_STATS_RL:          Wvel (THERMODYNAMICS) mean= -2.98444572720151E-07
DEBUG_STATS_RL:          Wvel (THERMODYNAMICS) S.D.=  1.61380741791729E-05
DEBUG_STATS_RL:         Theta (THERMODYNAMICS)  min= -2.00487736005413E+00
DEBUG_STATS_RL:         Theta (THERMODYNAMICS)  max=  2.98349188859800E+01
DEBUG_STATS_RL:         Theta (THERMODYNAMICS) mean=  3.20752803540584E+00
DEBUG_STATS_RL:         Theta (THERMODYNAMICS) S.D.=  5.85438154811542E+00
DEBUG_STATS_RL:          Salt (THERMODYNAMICS)  min= -5.20417042793042E-18
DEBUG_STATS_RL:          Salt (THERMODYNAMICS)  max=  3.74376019084248E+01
DEBUG_STATS_RL:          Salt (THERMODYNAMICS) mean=  1.88452072869581E+01
DEBUG_STATS_RL:          Salt (THERMODYNAMICS) S.D.=  1.73006824752532E+01
DEBUG_STATS_RL:         GtNm1 (THERMODYNAMICS)  min= -6.75555405539304E-06
DEBUG_STATS_RL:         GtNm1 (THERMODYNAMICS)  max=  5.71063761222860E-06
DEBUG_STATS_RL:         GtNm1 (THERMODYNAMICS) mean=  1.71288541827983E-08
DEBUG_STATS_RL:         GtNm1 (THERMODYNAMICS) S.D.=  2.59592435810560E-07
DEBUG_STATS_RL:         GsNm1 (THERMODYNAMICS)  min= -1.65515018950018E-06
DEBUG_STATS_RL:         GsNm1 (THERMODYNAMICS)  max=  1.62871072919482E-06
DEBUG_STATS_RL:         GsNm1 (THERMODYNAMICS) mean=  2.22997716437492E-10
DEBUG_STATS_RL:         GsNm1 (THERMODYNAMICS) S.D.=  2.62217998375578E-08
DEBUG_STATS_RL:                EtaN (DYNAMICS)  min= -1.40368451644936E+00
DEBUG_STATS_RL:                EtaN (DYNAMICS)  max=  7.37334999252786E-01
DEBUG_STATS_RL:                EtaN (DYNAMICS) mean= -1.56958316230384E-01
DEBUG_STATS_RL:                EtaN (DYNAMICS) S.D.=  6.14848970354882E-01
DEBUG_STATS_RL:                Uvel (DYNAMICS)  min= -1.00556218802975E-01
DEBUG_STATS_RL:                Uvel (DYNAMICS)  max=  1.90326486199950E-01
DEBUG_STATS_RL:                Uvel (DYNAMICS) mean=  6.36720506403810E-03
DEBUG_STATS_RL:                Uvel (DYNAMICS) S.D.=  2.47834299741062E-02
DEBUG_STATS_RL:                Vvel (DYNAMICS)  min= -9.94292964300345E-02
DEBUG_STATS_RL:                Vvel (DYNAMICS)  max=  1.10131110161418E-01
DEBUG_STATS_RL:                Vvel (DYNAMICS) mean= -4.50640874633488E-04
DEBUG_STATS_RL:                Vvel (DYNAMICS) S.D.=  1.41968601966837E-02
DEBUG_STATS_RL:                Wvel (DYNAMICS)  min= -1.91782479678822E-04
DEBUG_STATS_RL:                Wvel (DYNAMICS)  max=  1.76140167260784E-04
DEBUG_STATS_RL:                Wvel (DYNAMICS) mean= -2.98444572720151E-07
DEBUG_STATS_RL:                Wvel (DYNAMICS) S.D.=  1.61380741791729E-05
DEBUG_STATS_RL:               Theta (DYNAMICS)  min= -2.00487736005413E+00
DEBUG_STATS_RL:               Theta (DYNAMICS)  max=  2.98349188859800E+01
DEBUG_STATS_RL:               Theta (DYNAMICS) mean=  3.20752803540584E+00
DEBUG_STATS_RL:               Theta (DYNAMICS) S.D.=  5.85438154811542E+00
DEBUG_STATS_RL:                Salt (DYNAMICS)  min= -5.20417042793042E-18
DEBUG_STATS_RL:                Salt (DYNAMICS)  max=  3.74376019084248E+01
DEBUG_STATS_RL:                Salt (DYNAMICS) mean=  1.88452072869581E+01
DEBUG_STATS_RL:                Salt (DYNAMICS) S.D.=  1.73006824752532E+01
DEBUG_STATS_RL:                  Gu (DYNAMICS)  min= -9.96655116308109E-02
DEBUG_STATS_RL:                  Gu (DYNAMICS)  max=  1.92084951658822E-01
DEBUG_STATS_RL:                  Gu (DYNAMICS) mean=  6.50625401414022E-03
DEBUG_STATS_RL:                  Gu (DYNAMICS) S.D.=  2.56842590026932E-02
DEBUG_STATS_RL:                  Gv (DYNAMICS)  min= -9.75541585159091E-02
DEBUG_STATS_RL:                  Gv (DYNAMICS)  max=  1.06700056267023E-01
DEBUG_STATS_RL:                  Gv (DYNAMICS) mean=  2.00033429625751E-03
DEBUG_STATS_RL:                  Gv (DYNAMICS) S.D.=  1.43288596512456E-02
DEBUG_STATS_RL:               GuNm1 (DYNAMICS)  min= -6.60681395507930E-06
DEBUG_STATS_RL:               GuNm1 (DYNAMICS)  max=  6.82437532328236E-06
DEBUG_STATS_RL:               GuNm1 (DYNAMICS) mean= -2.09889320960662E-08
DEBUG_STATS_RL:               GuNm1 (DYNAMICS) S.D.=  1.10004237508002E-06
DEBUG_STATS_RL:               GvNm1 (DYNAMICS)  min= -8.71869452375411E-06
DEBUG_STATS_RL:               GvNm1 (DYNAMICS)  max=  1.67475183308910E-05
DEBUG_STATS_RL:               GvNm1 (DYNAMICS) mean=  7.74244189171267E-07
DEBUG_STATS_RL:               GvNm1 (DYNAMICS) S.D.=  2.58140123944934E-06
DEBUG_STATS_RL:               GtNm1 (DYNAMICS)  min= -6.75555405539304E-06
DEBUG_STATS_RL:               GtNm1 (DYNAMICS)  max=  5.71063761222860E-06
DEBUG_STATS_RL:               GtNm1 (DYNAMICS) mean=  1.71288541827983E-08
DEBUG_STATS_RL:               GtNm1 (DYNAMICS) S.D.=  2.59592435810560E-07
DEBUG_STATS_RL:               GsNm1 (DYNAMICS)  min= -1.65515018950018E-06
DEBUG_STATS_RL:               GsNm1 (DYNAMICS)  max=  1.62871072919482E-06
DEBUG_STATS_RL:               GsNm1 (DYNAMICS) mean=  2.22997716437492E-10
DEBUG_STATS_RL:               GsNm1 (DYNAMICS) S.D.=  2.62217998375578E-08
DEBUG_STATS_RL:    cg2d_b (SOLVE_FOR_PRESSURE)  min= -1.62996653844764E+04
DEBUG_STATS_RL:    cg2d_b (SOLVE_FOR_PRESSURE)  max=  1.28912247141639E+04
DEBUG_STATS_RL:    cg2d_b (SOLVE_FOR_PRESSURE) mean=  9.40773607949601E-01
DEBUG_STATS_RL:    cg2d_b (SOLVE_FOR_PRESSURE) S.D.=  3.11501228369692E+03
 cg2d: Sum(rhs),rhsMax =   1.33615681735267E-01  1.07060566359560E+00
(PID.TID 0000.0001)  cg2d: iter=     1 ; resid.=  1.81584974057437E-01
(PID.TID 0000.0001)  cg2d: iter=     2 ; resid.=  1.09215248388773E-01
(PID.TID 0000.0001)  cg2d: iter=     3 ; resid.=  1.21489734677021E-01
(PID.TID 0000.0001)  cg2d: iter=     4 ; resid.=  1.24470431918777E-01
(PID.TID 0000.0001)  cg2d: iter=     5 ; resid.=  1.13227203952845E-01
(PID.TID 0000.0001)  cg2d: iter=     6 ; resid.=  9.28901225862200E-02
(PID.TID 0000.0001)  cg2d: iter=     7 ; resid.=  7.80255010753639E-02
(PID.TID 0000.0001)  cg2d: iter=     8 ; resid.=  6.13679416155069E-02
(PID.TID 0000.0001)  cg2d: iter=     9 ; resid.=  4.82020422951112E-02
(PID.TID 0000.0001)  cg2d: iter=    10 ; resid.=  3.85740924058950E-02
(PID.TID 0000.0001)  cg2d: iter=    11 ; resid.=  3.50172689267724E-02
(PID.TID 0000.0001)  cg2d: iter=    12 ; resid.=  3.01709656433430E-02
(PID.TID 0000.0001)  cg2d: iter=    13 ; resid.=  2.27517274274189E-02
(PID.TID 0000.0001)  cg2d: iter=    14 ; resid.=  1.75921079348855E-02
(PID.TID 0000.0001)  cg2d: iter=    15 ; resid.=  1.50761038225118E-02
(PID.TID 0000.0001)  cg2d: iter=    16 ; resid.=  1.30178929302312E-02
(PID.TID 0000.0001)  cg2d: iter=    17 ; resid.=  1.20476837698361E-02
(PID.TID 0000.0001)  cg2d: iter=    18 ; resid.=  1.02967385888035E-02
(PID.TID 0000.0001)  cg2d: iter=    19 ; resid.=  8.62787124533375E-03
(PID.TID 0000.0001)  cg2d: iter=    20 ; resid.=  7.34750423497725E-03
(PID.TID 0000.0001)  cg2d: iter=    21 ; resid.=  5.90957211507141E-03
(PID.TID 0000.0001)  cg2d: iter=    22 ; resid.=  4.72950487348352E-03
(PID.TID 0000.0001)  cg2d: iter=    23 ; resid.=  3.72333731776256E-03
(PID.TID 0000.0001)  cg2d: iter=    24 ; resid.=  3.10467712513780E-03
(PID.TID 0000.0001)  cg2d: iter=    25 ; resid.=  2.52366361307346E-03
(PID.TID 0000.0001)  cg2d: iter=    26 ; resid.=  1.97210995986931E-03
(PID.TID 0000.0001)  cg2d: iter=    27 ; resid.=  1.68542845608482E-03
(PID.TID 0000.0001)  cg2d: iter=    28 ; resid.=  1.64363723585449E-03
(PID.TID 0000.0001)  cg2d: iter=    29 ; resid.=  1.43576146142255E-03
(PID.TID 0000.0001)  cg2d: iter=    30 ; resid.=  1.07955612051934E-03
(PID.TID 0000.0001)  cg2d: iter=    31 ; resid.=  8.42723243267390E-04
(PID.TID 0000.0001)  cg2d: iter=    32 ; resid.=  6.80624060611726E-04
(PID.TID 0000.0001)  cg2d: iter=    33 ; resid.=  5.60815329154810E-04
(PID.TID 0000.0001)  cg2d: iter=    34 ; resid.=  4.68397555301650E-04
(PID.TID 0000.0001)  cg2d: iter=    35 ; resid.=  3.77128507041488E-04
(PID.TID 0000.0001)  cg2d: iter=    36 ; resid.=  3.21780636598335E-04
(PID.TID 0000.0001)  cg2d: iter=    37 ; resid.=  2.81177658753761E-04
(PID.TID 0000.0001)  cg2d: iter=    38 ; resid.=  2.46571406440042E-04
(PID.TID 0000.0001)  cg2d: iter=    39 ; resid.=  1.96737669452634E-04
(PID.TID 0000.0001)  cg2d: iter=    40 ; resid.=  1.49726061980867E-04
(PID.TID 0000.0001)  cg2d: iter=    41 ; resid.=  1.22779640677314E-04
(PID.TID 0000.0001)  cg2d: iter=    42 ; resid.=  1.18369266048518E-04
(PID.TID 0000.0001)  cg2d: iter=    43 ; resid.=  1.14301665782247E-04
(PID.TID 0000.0001)  cg2d: iter=    44 ; resid.=  9.67245239297054E-05
(PID.TID 0000.0001)  cg2d: iter=    45 ; resid.=  8.00964666993725E-05
(PID.TID 0000.0001)  cg2d: iter=    46 ; resid.=  6.67137738446702E-05
(PID.TID 0000.0001)  cg2d: iter=    47 ; resid.=  5.35808872862852E-05
(PID.TID 0000.0001)  cg2d: iter=    48 ; resid.=  4.39259695469763E-05
(PID.TID 0000.0001)  cg2d: iter=    49 ; resid.=  3.68701624828016E-05
(PID.TID 0000.0001)  cg2d: iter=    50 ; resid.=  3.19733071727328E-05
(PID.TID 0000.0001)  cg2d: iter=    51 ; resid.=  2.64425244707980E-05
(PID.TID 0000.0001)  cg2d: iter=    52 ; resid.=  2.15892673691195E-05
(PID.TID 0000.0001)  cg2d: iter=    53 ; resid.=  1.76270888929426E-05
(PID.TID 0000.0001)  cg2d: iter=    54 ; resid.=  1.51681556022593E-05
(PID.TID 0000.0001)  cg2d: iter=    55 ; resid.=  1.28073019852298E-05
(PID.TID 0000.0001)  cg2d: iter=    56 ; resid.=  1.01929310161463E-05
(PID.TID 0000.0001)  cg2d: iter=    57 ; resid.=  7.83613401470637E-06
(PID.TID 0000.0001)  cg2d: iter=    58 ; resid.=  6.15030091555515E-06
(PID.TID 0000.0001)  cg2d: iter=    59 ; resid.=  5.13837164778697E-06
(PID.TID 0000.0001)  cg2d: iter=    60 ; resid.=  4.08334810474103E-06
(PID.TID 0000.0001)  cg2d: iter=    61 ; resid.=  3.42544403702857E-06
(PID.TID 0000.0001)  cg2d: iter=    62 ; resid.=  3.01012596400729E-06
(PID.TID 0000.0001)  cg2d: iter=    63 ; resid.=  2.64069669162597E-06
(PID.TID 0000.0001)  cg2d: iter=    64 ; resid.=  2.25468242868533E-06
(PID.TID 0000.0001)  cg2d: iter=    65 ; resid.=  1.83468882400226E-06
(PID.TID 0000.0001)  cg2d: iter=    66 ; resid.=  1.38904154036921E-06
(PID.TID 0000.0001)  cg2d: iter=    67 ; resid.=  1.05184398802154E-06
(PID.TID 0000.0001)  cg2d: iter=    68 ; resid.=  8.40629286491358E-07
(PID.TID 0000.0001)  cg2d: iter=    69 ; resid.=  7.00014152851268E-07
(PID.TID 0000.0001)  cg2d: iter=    70 ; resid.=  6.17469833319654E-07
(PID.TID 0000.0001)  cg2d: iter=    71 ; resid.=  4.86679330733780E-07
(PID.TID 0000.0001)  cg2d: iter=    72 ; resid.=  3.85301560381391E-07
(PID.TID 0000.0001)  cg2d: iter=    73 ; resid.=  3.48439102508349E-07
(PID.TID 0000.0001)  cg2d: iter=    74 ; resid.=  3.43201260323952E-07
(PID.TID 0000.0001)  cg2d: iter=    75 ; resid.=  2.92200276360159E-07
(PID.TID 0000.0001)  cg2d: iter=    76 ; resid.=  2.34312044640446E-07
(PID.TID 0000.0001)  cg2d: iter=    77 ; resid.=  1.75136166201564E-07
(PID.TID 0000.0001)  cg2d: iter=    78 ; resid.=  1.43106999852609E-07
(PID.TID 0000.0001)  cg2d: iter=    79 ; resid.=  1.23278411583636E-07
(PID.TID 0000.0001)  cg2d: iter=    80 ; resid.=  9.92517676392550E-08
(PID.TID 0000.0001)  cg2d: iter=    81 ; resid.=  7.89560313675989E-08
(PID.TID 0000.0001)  cg2d: iter=    82 ; resid.=  6.27049580858645E-08
(PID.TID 0000.0001)  cg2d: iter=    83 ; resid.=  4.62193396733578E-08
(PID.TID 0000.0001)  cg2d: iter=    84 ; resid.=  3.24093591948591E-08
(PID.TID 0000.0001)  cg2d: iter=    85 ; resid.=  2.20863056776050E-08
(PID.TID 0000.0001)  cg2d: iter=    86 ; resid.=  1.61291553507781E-08
(PID.TID 0000.0001)  cg2d: iter=    87 ; resid.=  1.30440145692534E-08
(PID.TID 0000.0001)  cg2d: iter=    88 ; resid.=  9.85120717400463E-09
(PID.TID 0000.0001)  cg2d: iter=    89 ; resid.=  7.20115765035334E-09
(PID.TID 0000.0001)  cg2d: iter=    90 ; resid.=  5.61317474454796E-09
(PID.TID 0000.0001)  cg2d: iter=    91 ; resid.=  4.42831499527615E-09
(PID.TID 0000.0001)  cg2d: iter=    92 ; resid.=  3.69053248180793E-09
(PID.TID 0000.0001)  cg2d: iter=    93 ; resid.=  2.98723882132591E-09
(PID.TID 0000.0001)  cg2d: iter=    94 ; resid.=  2.25475229516319E-09
(PID.TID 0000.0001)  cg2d: iter=    95 ; resid.=  1.72447536717391E-09
(PID.TID 0000.0001)  cg2d: iter=    96 ; resid.=  1.35135313183188E-09
(PID.TID 0000.0001)  cg2d: iter=    97 ; resid.=  1.01586742929041E-09
(PID.TID 0000.0001)  cg2d: iter=    98 ; resid.=  7.70563848587402E-10
(PID.TID 0000.0001)  cg2d: iter=    99 ; resid.=  6.21474536265610E-10
(PID.TID 0000.0001)  cg2d: iter=   100 ; resid.=  5.21327302267452E-10
(PID.TID 0000.0001)  cg2d: iter=   101 ; resid.=  4.42026026998511E-10
(PID.TID 0000.0001)  cg2d: iter=   102 ; resid.=  3.66153909141689E-10
(PID.TID 0000.0001)  cg2d: iter=   103 ; resid.=  3.02041859167041E-10
(PID.TID 0000.0001)  cg2d: iter=   104 ; resid.=  2.44051398386130E-10
(PID.TID 0000.0001)  cg2d: iter=   105 ; resid.=  1.99889836758731E-10
(PID.TID 0000.0001)  cg2d: iter=   106 ; resid.=  1.67431173903524E-10
(PID.TID 0000.0001)  cg2d: iter=   107 ; resid.=  1.44934266647863E-10
(PID.TID 0000.0001)  cg2d: iter=   108 ; resid.=  1.23261192531582E-10
(PID.TID 0000.0001)  cg2d: iter=   109 ; resid.=  9.82940775046870E-11
(PID.TID 0000.0001)  cg2d: iter=   110 ; resid.=  7.47497921690275E-11
(PID.TID 0000.0001)  cg2d: iter=   111 ; resid.=  5.79714822904931E-11
(PID.TID 0000.0001)  cg2d: iter=   112 ; resid.=  4.67697666695041E-11
(PID.TID 0000.0001)  cg2d: iter=   113 ; resid.=  3.35500819643476E-11
(PID.TID 0000.0001)  cg2d: iter=   114 ; resid.=  2.23897846939608E-11
(PID.TID 0000.0001)  cg2d: iter=   115 ; resid.=  1.62707529857584E-11
(PID.TID 0000.0001)  cg2d: iter=   116 ; resid.=  1.32582831365926E-11
(PID.TID 0000.0001)  cg2d: iter=   117 ; resid.=  1.13368749413065E-11
(PID.TID 0000.0001)  cg2d: iter=   118 ; resid.=  8.80858478364180E-12
(PID.TID 0000.0001)  cg2d: iter=   119 ; resid.=  6.65153139192355E-12
(PID.TID 0000.0001)  cg2d: iter=   120 ; resid.=  5.20485310067869E-12
(PID.TID 0000.0001)  cg2d: iter=   121 ; resid.=  4.25865317665621E-12
(PID.TID 0000.0001)  cg2d: iter=   122 ; resid.=  3.17354211103248E-12
(PID.TID 0000.0001)  cg2d: iter=   123 ; resid.=  2.21088092560367E-12
(PID.TID 0000.0001)  cg2d: iter=   124 ; resid.=  1.51742068297655E-12
(PID.TID 0000.0001)  cg2d: iter=   125 ; resid.=  1.11367451511795E-12
(PID.TID 0000.0001)  cg2d: iter=   126 ; resid.=  8.42172967685684E-13
(PID.TID 0000.0001)  cg2d: iter=   127 ; resid.=  5.59328981869453E-13
(PID.TID 0000.0001)  cg2d: iter=   128 ; resid.=  3.53019612050231E-13
(PID.TID 0000.0001)  cg2d: iter=   129 ; resid.=  2.25653907846305E-13
(PID.TID 0000.0001)  cg2d: iter=   130 ; resid.=  1.67983546539034E-13
(PID.TID 0000.0001)  cg2d: iter=   131 ; resid.=  1.29430184129518E-13
(PID.TID 0000.0001)  cg2d: iter=   132 ; resid.=  9.52690503478804E-14
DEBUG_STATS_RL:    cg2d_x (SOLVE_FOR_PRESSURE)  min= -1.41227603335807E+01
DEBUG_STATS_RL:    cg2d_x (SOLVE_FOR_PRESSURE)  max=  7.43848867770452E+00
DEBUG_STATS_RL:    cg2d_x (SOLVE_FOR_PRESSURE) mean= -1.56016508518512E+00
DEBUG_STATS_RL:    cg2d_x (SOLVE_FOR_PRESSURE) S.D.=  6.13436919844895E+00
(PID.TID 0000.0001)      cg2d_init_res =   6.99931736754896E-01
(PID.TID 0000.0001)      cg2d_iters(min,last) =      -1     132
(PID.TID 0000.0001)      cg2d_last_res =   9.52690503478804E-14
(PID.TID 0000.0001) // =======================================================
(PID.TID 0000.0001) // Begin MONITOR dynamic field statistics
(PID.TID 0000.0001) // =======================================================
(PID.TID 0000.0001) %MON time_tsnumber                =                    14
(PID.TID 0000.0001) %MON time_secondsf                =   1.2096000000000E+06
(PID.TID 0000.0001) %MON dynstat_eta_max              =   7.5825572657535E-01
(PID.TID 0000.0001) %MON dynstat_eta_min              =  -1.4396289840551E+00
(PID.TID 0000.0001) %MON dynstat_eta_mean             =  -9.8158060781901E-04
(PID.TID 0000.0001) %MON dynstat_eta_sd               =   5.5597047938606E-01
(PID.TID 0000.0001) %MON dynstat_eta_del2             =   1.7115873830476E-03
(PID.TID 0000.0001) %MON dynstat_uvel_max             =   1.9212622874183E-01
(PID.TID 0000.0001) %MON dynstat_uvel_min             =  -1.0436045378837E-01
(PID.TID 0000.0001) %MON dynstat_uvel_mean            =   6.9255669545914E-04
(PID.TID 0000.0001) %MON dynstat_uvel_sd              =   1.5311812946128E-02
(PID.TID 0000.0001) %MON dynstat_uvel_del2            =   9.3430273644603E-05
(PID.TID 0000.0001) %MON dynstat_vvel_max             =   1.1510532568309E-01
(PID.TID 0000.0001) %MON dynstat_vvel_min             =  -1.0285291136662E-01
(PID.TID 0000.0001) %MON dynstat_vvel_mean            =   2.6481421681475E-05
(PID.TID 0000.0001) %MON dynstat_vvel_sd              =   8.9994954722577E-03
(PID.TID 0000.0001) %MON dynstat_vvel_del2            =   8.8640386110925E-05
(PID.TID 0000.0001) %MON dynstat_wvel_max             =   1.5463414574728E-04
(PID.TID 0000.0001) %MON dynstat_wvel_min             =  -1.9395491285224E-04
(PID.TID 0000.0001) %MON dynstat_wvel_mean            =   4.3959329484635E-23
(PID.TID 0000.0001) %MON dynstat_wvel_sd              =   1.7705539040587E-05
(PID.TID 0000.0001) %MON dynstat_wvel_del2            =   1.8650312504527E-07
(PID.TID 0000.0001) %MON dynstat_theta_max            =   2.9834918885980E+01
(PID.TID 0000.0001) %MON dynstat_theta_min            =  -2.0048773600541E+00
(PID.TID 0000.0001) %MON dynstat_theta_mean           =   3.6198216935325E+00
(PID.TID 0000.0001) %MON dynstat_theta_sd             =   4.4152121417297E+00
(PID.TID 0000.0001) %MON dynstat_theta_del2           =   4.9245959081764E-03
(PID.TID 0000.0001) %MON dynstat_salt_max             =   3.7437601908425E+01
(PID.TID 0000.0001) %MON dynstat_salt_min             =   2.9757099458822E+01
(PID.TID 0000.0001) %MON dynstat_salt_mean            =   3.4717977885904E+01
(PID.TID 0000.0001) %MON dynstat_salt_sd              =   2.9619024639967E-01
(PID.TID 0000.0001) %MON dynstat_salt_del2            =   1.0111880484914E-03
(PID.TID 0000.0001) %MON dynstat_sst_max              =   2.9834918885980E+01
(PID.TID 0000.0001) %MON dynstat_sst_min              =  -2.0048773600541E+00
(PID.TID 0000.0001) %MON dynstat_sst_mean             =   1.8650055643117E+01
(PID.TID 0000.0001) %MON dynstat_sst_sd               =   9.0578736828666E+00
(PID.TID 0000.0001) %MON dynstat_sst_del2             =   2.6186711351407E-02
(PID.TID 0000.0001) %MON dynstat_sss_max              =   3.7429260014543E+01
(PID.TID 0000.0001) %MON dynstat_sss_min              =   2.9757099458822E+01
(PID.TID 0000.0001) %MON dynstat_sss_mean             =   3.4855001440577E+01
(PID.TID 0000.0001) %MON dynstat_sss_sd               =   9.6913583706630E-01
(PID.TID 0000.0001) %MON dynstat_sss_del2             =   7.9975691826219E-03
(PID.TID 0000.0001) %MON forcing_qnet_max             =   4.3951724243164E+02
(PID.TID 0000.0001) %MON forcing_qnet_min             =  -1.8160680541992E+02
(PID.TID 0000.0001) %MON forcing_qnet_mean            =  -1.6537549912690E+01
(PID.TID 0000.0001) %MON forcing_qnet_sd              =   1.1023602940575E+02
(PID.TID 0000.0001) %MON forcing_qnet_del2            =   1.0178724043875E+00
(PID.TID 0000.0001) %MON forcing_qsw_max              =   0.0000000000000E+00
(PID.TID 0000.0001) %MON forcing_qsw_min              =   0.0000000000000E+00
(PID.TID 0000.0001) %MON forcing_qsw_mean             =   0.0000000000000E+00
(PID.TID 0000.0001) %MON forcing_qsw_sd               =   0.0000000000000E+00
(PID.TID 0000.0001) %MON forcing_qsw_del2             =   0.0000000000000E+00
(PID.TID 0000.0001) %MON forcing_empmr_max            =   8.1966015841317E-05
(PID.TID 0000.0001) %MON forcing_empmr_min            =  -7.4627556045925E-05
(PID.TID 0000.0001) %MON forcing_empmr_mean           =   9.0339754661961E-07
(PID.TID 0000.0001) %MON forcing_empmr_sd             =   2.8612540665613E-05
(PID.TID 0000.0001) %MON forcing_empmr_del2           =   3.6568031492728E-07
(PID.TID 0000.0001) %MON forcing_fu_max               =   2.7213588953018E-01
(PID.TID 0000.0001) %MON forcing_fu_min               =  -1.6925373077393E-01
(PID.TID 0000.0001) %MON forcing_fu_mean              =   1.6017120794640E-02
(PID.TID 0000.0001) %MON forcing_fu_sd                =   9.0801548316031E-02
(PID.TID 0000.0001) %MON forcing_fu_del2              =   7.0931845625836E-04
(PID.TID 0000.0001) %MON forcing_fv_max               =   2.2936151027679E-01
(PID.TID 0000.0001) %MON forcing_fv_min               =  -1.7930621504784E-01
(PID.TID 0000.0001) %MON forcing_fv_mean              =  -5.4064227932267E-03
(PID.TID 0000.0001) %MON forcing_fv_sd                =   4.7655349358660E-02
(PID.TID 0000.0001) %MON forcing_fv_del2              =   4.8616958739333E-04
(PID.TID 0000.0001) %MON trAdv_CFL_u_max              =   5.4691326937491E-02
(PID.TID 0000.0001) %MON trAdv_CFL_v_max              =   2.1574236894387E-02
(PID.TID 0000.0001) %MON trAdv_CFL_w_max              =   6.4669935125915E-02
(PID.TID 0000.0001) %MON advcfl_uvel_max              =   5.4479857148592E-02
(PID.TID 0000.0001) %MON advcfl_vvel_max              =   2.2363118712745E-02
(PID.TID 0000.0001) %MON advcfl_wvel_max              =   5.9181139381992E-02
(PID.TID 0000.0001) %MON advcfl_W_hf_max              =   6.5345841400950E-02
(PID.TID 0000.0001) %MON pe_b_mean                    =   3.9553600106301E-04
(PID.TID 0000.0001) %MON ke_max                       =   1.8450051769575E-02
(PID.TID 0000.0001) %MON ke_mean                      =   1.4309351095392E-04
(PID.TID 0000.0001) %MON ke_vol                       =   1.3226782436723E+18
(PID.TID 0000.0001) %MON vort_r_min                   =  -4.1887502249368E-07
(PID.TID 0000.0001) %MON vort_r_max                   =   3.5940310947102E-07
(PID.TID 0000.0001) %MON vort_a_mean                  =  -2.5274807115070E-05
(PID.TID 0000.0001) %MON vort_a_sd                    =   7.3604422313596E-05
(PID.TID 0000.0001) %MON vort_p_mean                  =  -3.1845655443679E-05
(PID.TID 0000.0001) %MON vort_p_sd                    =   1.3162370218102E-04
(PID.TID 0000.0001) %MON surfExpan_theta_mean         =   4.7566306019732E-07
(PID.TID 0000.0001) %MON surfExpan_salt_mean          =  -4.7989999607669E-08
(PID.TID 0000.0001) // =======================================================
(PID.TID 0000.0001) // End MONITOR dynamic field statistics
(PID.TID 0000.0001) // =======================================================
 EXTERNAL_FIELDS_LOAD,        14 : iP,iLd,i0,i1=   12    1   12    1 ; Wght=  0.0333333333  0.9666666667
 EXTERNAL_FIELDS_LOAD: (fu0,1),fu,fv= -4.5368E-02 -3.5633E-02 -3.5957E-02 -5.7690E-02
 EXTERNAL_FIELDS_LOAD: SST,SSS,Q,E-P=  8.9807E-01  3.4691E+01  2.6573E+02  1.1584E-05
DEBUG_STATS_RL:          Uvel (THERMODYNAMICS)  min= -1.04360453788373E-01
DEBUG_STATS_RL:          Uvel (THERMODYNAMICS)  max=  1.92126228741828E-01
DEBUG_STATS_RL:          Uvel (THERMODYNAMICS) mean=  6.55975789480761E-03
DEBUG_STATS_RL:          Uvel (THERMODYNAMICS) S.D.=  2.55143262741925E-02
DEBUG_STATS_RL:          Vvel (THERMODYNAMICS)  min= -1.02852911366619E-01
DEBUG_STATS_RL:          Vvel (THERMODYNAMICS)  max=  1.15105325683086E-01
DEBUG_STATS_RL:          Vvel (THERMODYNAMICS) mean= -1.12251888888079E-06
DEBUG_STATS_RL:          Vvel (THERMODYNAMICS) S.D.=  1.40316026177106E-02
DEBUG_STATS_RL:          Wvel (THERMODYNAMICS)  min= -1.93954912852236E-04
DEBUG_STATS_RL:          Wvel (THERMODYNAMICS)  max=  1.54634145747283E-04
DEBUG_STATS_RL:          Wvel (THERMODYNAMICS) mean= -1.79664498208327E-07
DEBUG_STATS_RL:          Wvel (THERMODYNAMICS) S.D.=  1.52910242741699E-05
DEBUG_STATS_RL:         Theta (THERMODYNAMICS)  min= -2.02179772553063E+00
DEBUG_STATS_RL:         Theta (THERMODYNAMICS)  max=  2.98366790845837E+01
DEBUG_STATS_RL:         Theta (THERMODYNAMICS) mean=  3.20809268385383E+00
DEBUG_STATS_RL:         Theta (THERMODYNAMICS) S.D.=  5.85502925240008E+00
DEBUG_STATS_RL:          Salt (THERMODYNAMICS)  min= -5.20417042793042E-18
DEBUG_STATS_RL:          Salt (THERMODYNAMICS)  max=  3.74380647639872E+01
DEBUG_STATS_RL:          Salt (THERMODYNAMICS) mean=  1.88452147541333E+01
DEBUG_STATS_RL:          Salt (THERMODYNAMICS) S.D.=  1.73006902202628E+01
DEBUG_STATS_RL:         GtNm1 (THERMODYNAMICS)  min= -6.50732129631094E-06
DEBUG_STATS_RL:         GtNm1 (THERMODYNAMICS)  max=  5.40969973612783E-06
DEBUG_STATS_RL:         GtNm1 (THERMODYNAMICS) mean=  1.46619667535929E-08
DEBUG_STATS_RL:         GtNm1 (THERMODYNAMICS) S.D.=  2.55126206465857E-07
DEBUG_STATS_RL:         GsNm1 (THERMODYNAMICS)  min= -1.57618518962595E-06
DEBUG_STATS_RL:         GsNm1 (THERMODYNAMICS)  max=  1.54113779698050E-06
DEBUG_STATS_RL:         GsNm1 (THERMODYNAMICS) mean=  1.82714957299362E-10
DEBUG_STATS_RL:         GsNm1 (THERMODYNAMICS) S.D.=  2.58131968472968E-08
DEBUG_STATS_RL:                EtaN (DYNAMICS)  min= -1.43962898405513E+00
DEBUG_STATS_RL:                EtaN (DYNAMICS)  max=  7.58255726575351E-01
DEBUG_STATS_RL:                EtaN (DYNAMICS) mean= -1.59038234983194E-01
DEBUG_STATS_RL:                EtaN (DYNAMICS) S.D.=  6.25317961105904E-01
DEBUG_STATS_RL:                Uvel (DYNAMICS)  min= -1.04360453788373E-01
DEBUG_STATS_RL:                Uvel (DYNAMICS)  max=  1.92126228741828E-01
DEBUG_STATS_RL:                Uvel (DYNAMICS) mean=  6.55975789480761E-03
DEBUG_STATS_RL:                Uvel (DYNAMICS) S.D.=  2.55143262741925E-02
DEBUG_STATS_RL:                Vvel (DYNAMICS)  min= -1.02852911366619E-01
DEBUG_STATS_RL:                Vvel (DYNAMICS)  max=  1.15105325683086E-01
DEBUG_STATS_RL:                Vvel (DYNAMICS) mean= -1.12251888888079E-06
DEBUG_STATS_RL:                Vvel (DYNAMICS) S.D.=  1.40316026177106E-02
DEBUG_STATS_RL:                Wvel (DYNAMICS)  min= -1.93954912852236E-04
DEBUG_STATS_RL:                Wvel (DYNAMICS)  max=  1.54634145747283E-04
DEBUG_STATS_RL:                Wvel (DYNAMICS) mean= -1.79664498208327E-07
DEBUG_STATS_RL:                Wvel (DYNAMICS) S.D.=  1.52910242741699E-05
DEBUG_STATS_RL:               Theta (DYNAMICS)  min= -2.02179772553063E+00
DEBUG_STATS_RL:               Theta (DYNAMICS)  max=  2.98366790845837E+01
DEBUG_STATS_RL:               Theta (DYNAMICS) mean=  3.20809268385383E+00
DEBUG_STATS_RL:               Theta (DYNAMICS) S.D.=  5.85502925240008E+00
DEBUG_STATS_RL:                Salt (DYNAMICS)  min= -5.20417042793042E-18
DEBUG_STATS_RL:                Salt (DYNAMICS)  max=  3.74380647639872E+01
DEBUG_STATS_RL:                Salt (DYNAMICS) mean=  1.88452147541333E+01
DEBUG_STATS_RL:                Salt (DYNAMICS) S.D.=  1.73006902202628E+01
DEBUG_STATS_RL:                  Gu (DYNAMICS)  min= -1.02990680279213E-01
DEBUG_STATS_RL:                  Gu (DYNAMICS)  max=  1.90482114394099E-01
DEBUG_STATS_RL:                  Gu (DYNAMICS) mean=  6.58630151148360E-03
DEBUG_STATS_RL:                  Gu (DYNAMICS) S.D.=  2.60919069888624E-02
DEBUG_STATS_RL:                  Gv (DYNAMICS)  min= -1.00613543648256E-01
DEBUG_STATS_RL:                  Gv (DYNAMICS)  max=  1.11377252448363E-01
DEBUG_STATS_RL:                  Gv (DYNAMICS) mean=  2.46679208934507E-03
DEBUG_STATS_RL:                  Gv (DYNAMICS) S.D.=  1.47312669362653E-02
DEBUG_STATS_RL:               GuNm1 (DYNAMICS)  min= -6.70952447361501E-06
DEBUG_STATS_RL:               GuNm1 (DYNAMICS)  max=  6.91780325819145E-06
DEBUG_STATS_RL:               GuNm1 (DYNAMICS) mean= -1.95207925020274E-08
DEBUG_STATS_RL:               GuNm1 (DYNAMICS) S.D.=  1.09908822635422E-06
DEBUG_STATS_RL:               GvNm1 (DYNAMICS)  min= -8.64819134902295E-06
DEBUG_STATS_RL:               GvNm1 (DYNAMICS)  max=  1.68066691274455E-05
DEBUG_STATS_RL:               GvNm1 (DYNAMICS) mean=  7.73990673038198E-07
DEBUG_STATS_RL:               GvNm1 (DYNAMICS) S.D.=  2.57310641014420E-06
DEBUG_STATS_RL:               GtNm1 (DYNAMICS)  min= -6.50732129631094E-06
DEBUG_STATS_RL:               GtNm1 (DYNAMICS)  max=  5.40969973612783E-06
DEBUG_STATS_RL:               GtNm1 (DYNAMICS) mean=  1.46619667535929E-08
DEBUG_STATS_RL:               GtNm1 (DYNAMICS) S.D.=  2.55126206465857E-07
DEBUG_STATS_RL:               GsNm1 (DYNAMICS)  min= -1.57618518962595E-06
DEBUG_STATS_RL:               GsNm1 (DYNAMICS)  max=  1.54113779698050E-06
DEBUG_STATS_RL:               GsNm1 (DYNAMICS) mean=  1.82714957299362E-10
DEBUG_STATS_RL:               GsNm1 (DYNAMICS) S.D.=  2.58131968472968E-08
DEBUG_STATS_RL:    cg2d_b (SOLVE_FOR_PRESSURE)  min= -1.68225672513896E+04
DEBUG_STATS_RL:    cg2d_b (SOLVE_FOR_PRESSURE)  max=  1.30141443761469E+04
DEBUG_STATS_RL:    cg2d_b (SOLVE_FOR_PRESSURE) mean=  1.01383415194546E+00
DEBUG_STATS_RL:    cg2d_b (SOLVE_FOR_PRESSURE) S.D.=  3.10822824280265E+03
 cg2d: Sum(rhs),rhsMax =   1.39516521270505E-01  1.10495125824537E+00
(PID.TID 0000.0001)  cg2d: iter=     1 ; resid.=  1.75418091317798E-01
(PID.TID 0000.0001)  cg2d: iter=     2 ; resid.=  1.04082846249092E-01
(PID.TID 0000.0001)  cg2d: iter=     3 ; resid.=  1.02846136405447E-01
(PID.TID 0000.0001)  cg2d: iter=     4 ; resid.=  1.05841119567772E-01
(PID.TID 0000.0001)  cg2d: iter=     5 ; resid.=  9.80173765061901E-02
(PID.TID 0000.0001)  cg2d: iter=     6 ; resid.=  8.60756795550362E-02
(PID.TID 0000.0001)  cg2d: iter=     7 ; resid.=  7.41857375371451E-02
(PID.TID 0000.0001)  cg2d: iter=     8 ; resid.=  5.93778433937605E-02
(PID.TID 0000.0001)  cg2d: iter=     9 ; resid.=  4.74269390109163E-02
(PID.TID 0000.0001)  cg2d: iter=    10 ; resid.=  3.87533308724037E-02
(PID.TID 0000.0001)  cg2d: iter=    11 ; resid.=  3.31110088653465E-02
(PID.TID 0000.0001)  cg2d: iter=    12 ; resid.=  2.73496045839551E-02
(PID.TID 0000.0001)  cg2d: iter=    13 ; resid.=  2.07077140979659E-02
(PID.TID 0000.0001)  cg2d: iter=    14 ; resid.=  1.68896558766140E-02
(PID.TID 0000.0001)  cg2d: iter=    15 ; resid.=  1.47842870759630E-02
(PID.TID 0000.0001)  cg2d: iter=    16 ; resid.=  1.32272820502626E-02
(PID.TID 0000.0001)  cg2d: iter=    17 ; resid.=  1.22222333693370E-02
(PID.TID 0000.0001)  cg2d: iter=    18 ; resid.=  1.01924267809110E-02
(PID.TID 0000.0001)  cg2d: iter=    19 ; resid.=  7.98695977861991E-03
(PID.TID 0000.0001)  cg2d: iter=    20 ; resid.=  6.48654144793817E-03
(PID.TID 0000.0001)  cg2d: iter=    21 ; resid.=  5.43280255413452E-03
(PID.TID 0000.0001)  cg2d: iter=    22 ; resid.=  4.61218691072677E-03
(PID.TID 0000.0001)  cg2d: iter=    23 ; resid.=  3.68491389726766E-03
(PID.TID 0000.0001)  cg2d: iter=    24 ; resid.=  3.16429481045892E-03
(PID.TID 0000.0001)  cg2d: iter=    25 ; resid.=  2.73384915116815E-03
(PID.TID 0000.0001)  cg2d: iter=    26 ; resid.=  2.32854396046502E-03
(PID.TID 0000.0001)  cg2d: iter=    27 ; resid.=  1.99208241788020E-03
(PID.TID 0000.0001)  cg2d: iter=    28 ; resid.=  1.76568705404684E-03
(PID.TID 0000.0001)  cg2d: iter=    29 ; resid.=  1.45271412281925E-03
(PID.TID 0000.0001)  cg2d: iter=    30 ; resid.=  1.15692028631862E-03
(PID.TID 0000.0001)  cg2d: iter=    31 ; resid.=  9.96356151755135E-04
(PID.TID 0000.0001)  cg2d: iter=    32 ; resid.=  7.86929957057129E-04
(PID.TID 0000.0001)  cg2d: iter=    33 ; resid.=  5.99344732820093E-04
(PID.TID 0000.0001)  cg2d: iter=    34 ; resid.=  4.74260690149033E-04
(PID.TID 0000.0001)  cg2d: iter=    35 ; resid.=  3.85267535428766E-04
(PID.TID 0000.0001)  cg2d: iter=    36 ; resid.=  3.14350297663367E-04
(PID.TID 0000.0001)  cg2d: iter=    37 ; resid.=  2.70630546397607E-04
(PID.TID 0000.0001)  cg2d: iter=    38 ; resid.=  2.55233925681074E-04
(PID.TID 0000.0001)  cg2d: iter=    39 ; resid.=  2.29290467633502E-04
(PID.TID 0000.0001)  cg2d: iter=    40 ; resid.=  1.91624848990933E-04
(PID.TID 0000.0001)  cg2d: iter=    41 ; resid.=  1.60031853770272E-04
(PID.TID 0000.0001)  cg2d: iter=    42 ; resid.=  1.43929701844203E-04
(PID.TID 0000.0001)  cg2d: iter=    43 ; resid.=  1.27959263064713E-04
(PID.TID 0000.0001)  cg2d: iter=    44 ; resid.=  1.04009972828275E-04
(PID.TID 0000.0001)  cg2d: iter=    45 ; resid.=  8.63619361707415E-05
(PID.TID 0000.0001)  cg2d: iter=    46 ; resid.=  6.93318327942242E-05
(PID.TID 0000.0001)  cg2d: iter=    47 ; resid.=  5.36189593948184E-05
(PID.TID 0000.0001)  cg2d: iter=    48 ; resid.=  4.28907698955304E-05
(PID.TID 0000.0001)  cg2d: iter=    49 ; resid.=  3.64923167249435E-05
(PID.TID 0000.0001)  cg2d: iter=    50 ; resid.=  3.13488873362590E-05
(PID.TID 0000.0001)  cg2d: iter=    51 ; resid.=  2.54924938849622E-05
(PID.TID 0000.0001)  cg2d: iter=    52 ; resid.=  1.95945196937664E-05
(PID.TID 0000.0001)  cg2d: iter=    53 ; resid.=  1.49935936289320E-05
(PID.TID 0000.0001)  cg2d: iter=    54 ; resid.=  1.24609905000546E-05
(PID.TID 0000.0001)  cg2d: iter=    55 ; resid.=  1.08339619445472E-05
(PID.TID 0000.0001)  cg2d: iter=    56 ; resid.=  9.24811445427037E-06
(PID.TID 0000.0001)  cg2d: iter=    57 ; resid.=  7.44371355927139E-06
(PID.TID 0000.0001)  cg2d: iter=    58 ; resid.=  5.53289393525179E-06
(PID.TID 0000.0001)  cg2d: iter=    59 ; resid.=  4.09067333314062E-06
(PID.TID 0000.0001)  cg2d: iter=    60 ; resid.=  2.93317845492089E-06
(PID.TID 0000.0001)  cg2d: iter=    61 ; resid.=  2.38131109301276E-06
(PID.TID 0000.0001)  cg2d: iter=    62 ; resid.=  2.16068184192450E-06
(PID.TID 0000.0001)  cg2d: iter=    63 ; resid.=  1.95217151168877E-06
(PID.TID 0000.0001)  cg2d: iter=    64 ; resid.=  1.62228716424781E-06
(PID.TID 0000.0001)  cg2d: iter=    65 ; resid.=  1.33241269490819E-06
(PID.TID 0000.0001)  cg2d: iter=    66 ; resid.=  1.08951212127625E-06
(PID.TID 0000.0001)  cg2d: iter=    67 ; resid.=  9.13714210350933E-07
(PID.TID 0000.0001)  cg2d: iter=    68 ; resid.=  7.67092414797926E-07
(PID.TID 0000.0001)  cg2d: iter=    69 ; resid.=  6.32532845159433E-07
(PID.TID 0000.0001)  cg2d: iter=    70 ; resid.=  5.06744422355122E-07
(PID.TID 0000.0001)  cg2d: iter=    71 ; resid.=  3.68880070326436E-07
(PID.TID 0000.0001)  cg2d: iter=    72 ; resid.=  2.89800252788531E-07
(PID.TID 0000.0001)  cg2d: iter=    73 ; resid.=  2.63237884866991E-07
(PID.TID 0000.0001)  cg2d: iter=    74 ; resid.=  2.47786914022471E-07
(PID.TID 0000.0001)  cg2d: iter=    75 ; resid.=  2.07204412811710E-07
(PID.TID 0000.0001)  cg2d: iter=    76 ; resid.=  1.67192240651633E-07
(PID.TID 0000.0001)  cg2d: iter=    77 ; resid.=  1.31508393901287E-07
(PID.TID 0000.0001)  cg2d: iter=    78 ; resid.=  1.09634178371392E-07
(PID.TID 0000.0001)  cg2d: iter=    79 ; resid.=  8.98023201243166E-08
(PID.TID 0000.0001)  cg2d: iter=    80 ; resid.=  7.24482997538620E-08
(PID.TID 0000.0001)  cg2d: iter=    81 ; resid.=  6.08475580309103E-08
(PID.TID 0000.0001)  cg2d: iter=    82 ; resid.=  5.12661968385518E-08
(PID.TID 0000.0001)  cg2d: iter=    83 ; resid.=  3.90177936364586E-08
(PID.TID 0000.0001)  cg2d: iter=    84 ; resid.=  2.88380418285130E-08
(PID.TID 0000.0001)  cg2d: iter=    85 ; resid.=  2.18433985975361E-08
(PID.TID 0000.0001)  cg2d: iter=    86 ; resid.=  1.78588143952128E-08
(PID.TID 0000.0001)  cg2d: iter=    87 ; resid.=  1.50373922185198E-08
(PID.TID 0000.0001)  cg2d: iter=    88 ; resid.=  1.10706378023233E-08
(PID.TID 0000.0001)  cg2d: iter=    89 ; resid.=  8.21427644088122E-09
(PID.TID 0000.0001)  cg2d: iter=    90 ; resid.=  7.03246972044412E-09
(PID.TID 0000.0001)  cg2d: iter=    91 ; resid.=  5.88866277625551E-09
(PID.TID 0000.0001)  cg2d: iter=    92 ; resid.=  4.72125266754115E-09
(PID.TID 0000.0001)  cg2d: iter=    93 ; resid.=  3.56079702255925E-09
(PID.TID 0000.0001)  cg2d: iter=    94 ; resid.=  2.64093163438487E-09
(PID.TID 0000.0001)  cg2d: iter=    95 ; resid.=  2.05911414572412E-09
(PID.TID 0000.0001)  cg2d: iter=    96 ; resid.=  1.71310821005919E-09
(PID.TID 0000.0001)  cg2d: iter=    97 ; resid.=  1.43494890190578E-09
(PID.TID 0000.0001)  cg2d: iter=    98 ; resid.=  1.15413871853778E-09
(PID.TID 0000.0001)  cg2d: iter=    99 ; resid.=  9.43992847919330E-10
(PID.TID 0000.0001)  cg2d: iter=   100 ; resid.=  8.00507770969034E-10
(PID.TID 0000.0001)  cg2d: iter=   101 ; resid.=  7.02057360802004E-10
(PID.TID 0000.0001)  cg2d: iter=   102 ; resid.=  6.25437971093023E-10
(PID.TID 0000.0001)  cg2d: iter=   103 ; resid.=  5.10323845742797E-10
(PID.TID 0000.0001)  cg2d: iter=   104 ; resid.=  3.84196840441457E-10
(PID.TID 0000.0001)  cg2d: iter=   105 ; resid.=  2.88316161289275E-10
(PID.TID 0000.0001)  cg2d: iter=   106 ; resid.=  2.32369059762950E-10
(PID.TID 0000.0001)  cg2d: iter=   107 ; resid.=  1.85755190070283E-10
(PID.TID 0000.0001)  cg2d: iter=   108 ; resid.=  1.41691523018273E-10
(PID.TID 0000.0001)  cg2d: iter=   109 ; resid.=  1.04353011244811E-10
(PID.TID 0000.0001)  cg2d: iter=   110 ; resid.=  7.63965748845666E-11
(PID.TID 0000.0001)  cg2d: iter=   111 ; resid.=  5.68458904634035E-11
(PID.TID 0000.0001)  cg2d: iter=   112 ; resid.=  4.43175781509314E-11
(PID.TID 0000.0001)  cg2d: iter=   113 ; resid.=  3.16769742329461E-11
(PID.TID 0000.0001)  cg2d: iter=   114 ; resid.=  2.09710073407043E-11
(PID.TID 0000.0001)  cg2d: iter=   115 ; resid.=  1.55994143358360E-11
(PID.TID 0000.0001)  cg2d: iter=   116 ; resid.=  1.17930882629061E-11
(PID.TID 0000.0001)  cg2d: iter=   117 ; resid.=  8.61659932912432E-12
(PID.TID 0000.0001)  cg2d: iter=   118 ; resid.=  6.06043691829204E-12
(PID.TID 0000.0001)  cg2d: iter=   119 ; resid.=  4.46174453294033E-12
(PID.TID 0000.0001)  cg2d: iter=   120 ; resid.=  3.42283545271107E-12
(PID.TID 0000.0001)  cg2d: iter=   121 ; resid.=  2.83467692709342E-12
(PID.TID 0000.0001)  cg2d: iter=   122 ; resid.=  2.32062727699229E-12
(PID.TID 0000.0001)  cg2d: iter=   123 ; resid.=  1.83736780776748E-12
(PID.TID 0000.0001)  cg2d: iter=   124 ; resid.=  1.41901606759639E-12
(PID.TID 0000.0001)  cg2d: iter=   125 ; resid.=  1.06432233169266E-12
(PID.TID 0000.0001)  cg2d: iter=   126 ; resid.=  7.76186934450576E-13
(PID.TID 0000.0001)  cg2d: iter=   127 ; resid.=  5.12499030753281E-13
(PID.TID 0000.0001)  cg2d: iter=   128 ; resid.=  3.34596998550729E-13
(PID.TID 0000.0001)  cg2d: iter=   129 ; resid.=  2.13412536890300E-13
(PID.TID 0000.0001)  cg2d: iter=   130 ; resid.=  1.56256921557616E-13
(PID.TID 0000.0001)  cg2d: iter=   131 ; resid.=  1.21522821198524E-13
(PID.TID 0000.0001)  cg2d: iter=   132 ; resid.=  9.13543377661645E-14
DEBUG_STATS_RL:    cg2d_x (SOLVE_FOR_PRESSURE)  min= -1.45092069340433E+01
DEBUG_STATS_RL:    cg2d_x (SOLVE_FOR_PRESSURE)  max=  7.77888104838261E+00
DEBUG_STATS_RL:    cg2d_x (SOLVE_FOR_PRESSURE) mean= -1.58150377501401E+00
DEBUG_STATS_RL:    cg2d_x (SOLVE_FOR_PRESSURE) S.D.=  6.23199234249835E+00
(PID.TID 0000.0001)      cg2d_init_res =   6.37625824628862E-01
(PID.TID 0000.0001)      cg2d_iters(min,last) =      -1     132
(PID.TID 0000.0001)      cg2d_last_res =   9.13543377661645E-14
(PID.TID 0000.0001) // =======================================================
(PID.TID 0000.0001) // Begin MONITOR dynamic field statistics
(PID.TID 0000.0001) // =======================================================
(PID.TID 0000.0001) %MON time_tsnumber                =                    15
(PID.TID 0000.0001) %MON time_secondsf                =   1.2960000000000E+06
(PID.TID 0000.0001) %MON dynstat_eta_max              =   7.9295423530917E-01
(PID.TID 0000.0001) %MON dynstat_eta_min              =  -1.4790221135620E+00
(PID.TID 0000.0001) %MON dynstat_eta_mean             =  -1.0578102262701E-03
(PID.TID 0000.0001) %MON dynstat_eta_sd               =   5.6495679726741E-01
(PID.TID 0000.0001) %MON dynstat_eta_del2             =   1.7117672500800E-03
(PID.TID 0000.0001) %MON dynstat_uvel_max             =   1.9032405743640E-01
(PID.TID 0000.0001) %MON dynstat_uvel_min             =  -1.0715324528620E-01
(PID.TID 0000.0001) %MON dynstat_uvel_mean            =   7.6398816996366E-04
(PID.TID 0000.0001) %MON dynstat_uvel_sd              =   1.5594259331751E-02
(PID.TID 0000.0001) %MON dynstat_uvel_del2            =   9.4775662348688E-05
(PID.TID 0000.0001) %MON dynstat_vvel_max             =   1.1938550663321E-01
(PID.TID 0000.0001) %MON dynstat_vvel_min             =  -1.0557337874125E-01
(PID.TID 0000.0001) %MON dynstat_vvel_mean            =   6.5923916034968E-05
(PID.TID 0000.0001) %MON dynstat_vvel_sd              =   8.8386709331199E-03
(PID.TID 0000.0001) %MON dynstat_vvel_del2            =   8.6648783496521E-05
(PID.TID 0000.0001) %MON dynstat_wvel_max             =   1.5503985747917E-04
(PID.TID 0000.0001) %MON dynstat_wvel_min             =  -1.9417668391842E-04
(PID.TID 0000.0001) %MON dynstat_wvel_mean            =  -1.2830341237832E-22
(PID.TID 0000.0001) %MON dynstat_wvel_sd              =   1.7291688188053E-05
(PID.TID 0000.0001) %MON dynstat_wvel_del2            =   1.8813861701056E-07
(PID.TID 0000.0001) %MON dynstat_theta_max            =   2.9836679084584E+01
(PID.TID 0000.0001) %MON dynstat_theta_min            =  -2.0217977255306E+00
(PID.TID 0000.0001) %MON dynstat_theta_mean           =   3.6199019191477E+00
(PID.TID 0000.0001) %MON dynstat_theta_sd             =   4.4152842834713E+00
(PID.TID 0000.0001) %MON dynstat_theta_del2           =   4.9035006707265E-03
(PID.TID 0000.0001) %MON dynstat_salt_max             =   3.7438064763987E+01
(PID.TID 0000.0001) %MON dynstat_salt_min             =   2.9759289264027E+01
(PID.TID 0000.0001) %MON dynstat_salt_mean            =   3.4717979805043E+01
(PID.TID 0000.0001) %MON dynstat_salt_sd              =   2.9619711478148E-01
(PID.TID 0000.0001) %MON dynstat_salt_del2            =   1.0115913225064E-03
(PID.TID 0000.0001) %MON dynstat_sst_max              =   2.9836679084584E+01
(PID.TID 0000.0001) %MON dynstat_sst_min              =  -2.0217977255306E+00
(PID.TID 0000.0001) %MON dynstat_sst_mean             =   1.8659070958802E+01
(PID.TID 0000.0001) %MON dynstat_sst_sd               =   9.0551279486749E+00
(PID.TID 0000.0001) %MON dynstat_sst_del2             =   2.6219981758099E-02
(PID.TID 0000.0001) %MON dynstat_sss_max              =   3.7429201156703E+01
(PID.TID 0000.0001) %MON dynstat_sss_min              =   2.9759289264027E+01
(PID.TID 0000.0001) %MON dynstat_sss_mean             =   3.4854942628421E+01
(PID.TID 0000.0001) %MON dynstat_sss_sd               =   9.6960380721863E-01
(PID.TID 0000.0001) %MON dynstat_sss_del2             =   7.9986860234781E-03
(PID.TID 0000.0001) %MON forcing_qnet_max             =   4.4056542968750E+02
(PID.TID 0000.0001) %MON forcing_qnet_min             =  -1.8146606140137E+02
(PID.TID 0000.0001) %MON forcing_qnet_mean            =  -1.6525037956867E+01
(PID.TID 0000.0001) %MON forcing_qnet_sd              =   1.1005308947553E+02
(PID.TID 0000.0001) %MON forcing_qnet_del2            =   1.0211400522004E+00
(PID.TID 0000.0001) %MON forcing_qsw_max              =   0.0000000000000E+00
(PID.TID 0000.0001) %MON forcing_qsw_min              =   0.0000000000000E+00
(PID.TID 0000.0001) %MON forcing_qsw_mean             =   0.0000000000000E+00
(PID.TID 0000.0001) %MON forcing_qsw_sd               =   0.0000000000000E+00
(PID.TID 0000.0001) %MON forcing_qsw_del2             =   0.0000000000000E+00
(PID.TID 0000.0001) %MON forcing_empmr_max            =   8.2070127405132E-05
(PID.TID 0000.0001) %MON forcing_empmr_min            =  -7.5009903355294E-05
(PID.TID 0000.0001) %MON forcing_empmr_mean           =   9.1316730436512E-07
(PID.TID 0000.0001) %MON forcing_empmr_sd             =   2.8704317606931E-05
(PID.TID 0000.0001) %MON forcing_empmr_del2           =   3.6657303344582E-07
(PID.TID 0000.0001) %MON forcing_fu_max               =   2.7545738518238E-01
(PID.TID 0000.0001) %MON forcing_fu_min               =  -1.7006715089083E-01
(PID.TID 0000.0001) %MON forcing_fu_mean              =   1.6009427973603E-02
(PID.TID 0000.0001) %MON forcing_fu_sd                =   9.0926657900263E-02
(PID.TID 0000.0001) %MON forcing_fu_del2              =   7.1687269957315E-04
(PID.TID 0000.0001) %MON forcing_fv_max               =   2.3124141544104E-01
(PID.TID 0000.0001) %MON forcing_fv_min               =  -1.7872155755758E-01
(PID.TID 0000.0001) %MON forcing_fv_mean              =  -5.3326602663659E-03
(PID.TID 0000.0001) %MON forcing_fv_sd                =   4.7945514242523E-02
(PID.TID 0000.0001) %MON forcing_fv_del2              =   4.9262259263652E-04
(PID.TID 0000.0001) %MON trAdv_CFL_u_max              =   5.4490922397226E-02
(PID.TID 0000.0001) %MON trAdv_CFL_v_max              =   2.2548665499265E-02
(PID.TID 0000.0001) %MON trAdv_CFL_w_max              =   6.5345841400950E-02
(PID.TID 0000.0001) %MON advcfl_uvel_max              =   5.3230355382547E-02
(PID.TID 0000.0001) %MON advcfl_vvel_max              =   2.3194689225504E-02
(PID.TID 0000.0001) %MON advcfl_wvel_max              =   5.9183671123894E-02
(PID.TID 0000.0001) %MON advcfl_W_hf_max              =   6.5348636865966E-02
(PID.TID 0000.0001) %MON pe_b_mean                    =   4.0842582892146E-04
(PID.TID 0000.0001) %MON ke_max                       =   1.8573020962996E-02
(PID.TID 0000.0001) %MON ke_mean                      =   1.4582033570999E-04
(PID.TID 0000.0001) %MON ke_vol                       =   1.3226782436723E+18
(PID.TID 0000.0001) %MON vort_r_min                   =  -4.0935057324259E-07
(PID.TID 0000.0001) %MON vort_r_max                   =   3.7299086991912E-07
(PID.TID 0000.0001) %MON vort_a_mean                  =  -2.5274807045349E-05
(PID.TID 0000.0001) %MON vort_a_sd                    =   7.3604428494670E-05
(PID.TID 0000.0001) %MON vort_p_mean                  =  -3.1845655355833E-05
(PID.TID 0000.0001) %MON vort_p_sd                    =   1.3162370599063E-04
(PID.TID 0000.0001) %MON surfExpan_theta_mean         =   4.7496377871962E-07
(PID.TID 0000.0001) %MON surfExpan_salt_mean          =  -3.3374883556834E-08
(PID.TID 0000.0001) // =======================================================
(PID.TID 0000.0001) // End MONITOR dynamic field statistics
(PID.TID 0000.0001) // =======================================================
 EXTERNAL_FIELDS_LOAD,        15 : iP,iLd,i0,i1=   12    1    1    2 ; Wght=  1.0000000000  0.0000000000
 EXTERNAL_FIELDS_LOAD, it=        15 : Reading new data, i0,i1=    1    2 (prev=   12    1 )
(PID.TID 0000.0001)  MDS_READ_FIELD: opening global file: trenberth_taux.bin
(PID.TID 0000.0001)  MDS_READ_FIELD: opening global file: trenberth_taux.bin
(PID.TID 0000.0001)  MDS_READ_FIELD: opening global file: trenberth_tauy.bin
(PID.TID 0000.0001)  MDS_READ_FIELD: opening global file: trenberth_tauy.bin
(PID.TID 0000.0001)  MDS_READ_FIELD: opening global file: ncep_qnet.bin
(PID.TID 0000.0001)  MDS_READ_FIELD: opening global file: ncep_qnet.bin
(PID.TID 0000.0001)  MDS_READ_FIELD: opening global file: ncep_emp.bin
(PID.TID 0000.0001)  MDS_READ_FIELD: opening global file: ncep_emp.bin
(PID.TID 0000.0001)  MDS_READ_FIELD: opening global file: lev_sst.bin
(PID.TID 0000.0001)  MDS_READ_FIELD: opening global file: lev_sst.bin
(PID.TID 0000.0001)  MDS_READ_FIELD: opening global file: lev_sss.bin
(PID.TID 0000.0001)  MDS_READ_FIELD: opening global file: lev_sss.bin
 EXTERNAL_FIELDS_LOAD: (fu0,1),fu,fv= -3.5633E-02 -1.4435E-02 -3.5633E-02 -5.7257E-02
 EXTERNAL_FIELDS_LOAD: SST,SSS,Q,E-P=  9.5843E-01  3.4715E+01  2.6577E+02  1.1637E-05
DEBUG_STATS_RL:          Uvel (THERMODYNAMICS)  min= -1.07153245286197E-01
DEBUG_STATS_RL:          Uvel (THERMODYNAMICS)  max=  1.90324057436404E-01
DEBUG_STATS_RL:          Uvel (THERMODYNAMICS) mean=  6.63413487699890E-03
DEBUG_STATS_RL:          Uvel (THERMODYNAMICS) S.D.=  2.58965363478820E-02
DEBUG_STATS_RL:          Vvel (THERMODYNAMICS)  min= -1.05573378741251E-01
DEBUG_STATS_RL:          Vvel (THERMODYNAMICS)  max=  1.19385506633209E-01
DEBUG_STATS_RL:          Vvel (THERMODYNAMICS) mean=  4.31141937747940E-04
DEBUG_STATS_RL:          Vvel (THERMODYNAMICS) S.D.=  1.40951838031726E-02
DEBUG_STATS_RL:          Wvel (THERMODYNAMICS)  min= -1.94176683918415E-04
DEBUG_STATS_RL:          Wvel (THERMODYNAMICS)  max=  1.55039857479170E-04
DEBUG_STATS_RL:          Wvel (THERMODYNAMICS) mean= -5.82448915203616E-08
DEBUG_STATS_RL:          Wvel (THERMODYNAMICS) S.D.=  1.49928007234032E-05
DEBUG_STATS_RL:         Theta (THERMODYNAMICS)  min= -2.02183356254722E+00
DEBUG_STATS_RL:         Theta (THERMODYNAMICS)  max=  2.98382690238106E+01
DEBUG_STATS_RL:         Theta (THERMODYNAMICS) mean=  3.20853808637084E+00
DEBUG_STATS_RL:         Theta (THERMODYNAMICS) S.D.=  5.85559775513628E+00
DEBUG_STATS_RL:          Salt (THERMODYNAMICS)  min= -5.20417042793042E-18
DEBUG_STATS_RL:          Salt (THERMODYNAMICS)  max=  3.74386348509330E+01
DEBUG_STATS_RL:          Salt (THERMODYNAMICS) mean=  1.88452190606093E+01
DEBUG_STATS_RL:          Salt (THERMODYNAMICS) S.D.=  1.73006949754740E+01
DEBUG_STATS_RL:         GtNm1 (THERMODYNAMICS)  min= -4.58738889132247E-06
DEBUG_STATS_RL:         GtNm1 (THERMODYNAMICS)  max=  3.88651884649288E-06
DEBUG_STATS_RL:         GtNm1 (THERMODYNAMICS) mean=  1.20129176197216E-08
DEBUG_STATS_RL:         GtNm1 (THERMODYNAMICS) S.D.=  2.46818415595870E-07
DEBUG_STATS_RL:         GsNm1 (THERMODYNAMICS)  min= -1.01071135968973E-06
DEBUG_STATS_RL:         GsNm1 (THERMODYNAMICS)  max=  1.09812133810174E-06
DEBUG_STATS_RL:         GsNm1 (THERMODYNAMICS) mean=  1.20743699052916E-10
DEBUG_STATS_RL:         GsNm1 (THERMODYNAMICS) S.D.=  2.34270043534426E-08
DEBUG_STATS_RL:                EtaN (DYNAMICS)  min= -1.47902211356204E+00
DEBUG_STATS_RL:                EtaN (DYNAMICS)  max=  7.92954235309167E-01
DEBUG_STATS_RL:                EtaN (DYNAMICS) mean= -1.61213432723142E-01
DEBUG_STATS_RL:                EtaN (DYNAMICS) S.D.=  6.35269351936632E-01
DEBUG_STATS_RL:                Uvel (DYNAMICS)  min= -1.07153245286197E-01
DEBUG_STATS_RL:                Uvel (DYNAMICS)  max=  1.90324057436404E-01
DEBUG_STATS_RL:                Uvel (DYNAMICS) mean=  6.63413487699890E-03
DEBUG_STATS_RL:                Uvel (DYNAMICS) S.D.=  2.58965363478820E-02
DEBUG_STATS_RL:                Vvel (DYNAMICS)  min= -1.05573378741251E-01
DEBUG_STATS_RL:                Vvel (DYNAMICS)  max=  1.19385506633209E-01
DEBUG_STATS_RL:                Vvel (DYNAMICS) mean=  4.31141937747940E-04
DEBUG_STATS_RL:                Vvel (DYNAMICS) S.D.=  1.40951838031726E-02
DEBUG_STATS_RL:                Wvel (DYNAMICS)  min= -1.94176683918415E-04
DEBUG_STATS_RL:                Wvel (DYNAMICS)  max=  1.55039857479170E-04
DEBUG_STATS_RL:                Wvel (DYNAMICS) mean= -5.82448915203616E-08
DEBUG_STATS_RL:                Wvel (DYNAMICS) S.D.=  1.49928007234032E-05
DEBUG_STATS_RL:               Theta (DYNAMICS)  min= -2.02183356254722E+00
DEBUG_STATS_RL:               Theta (DYNAMICS)  max=  2.98382690238106E+01
DEBUG_STATS_RL:               Theta (DYNAMICS) mean=  3.20853808637084E+00
DEBUG_STATS_RL:               Theta (DYNAMICS) S.D.=  5.85559775513628E+00
DEBUG_STATS_RL:                Salt (DYNAMICS)  min= -5.20417042793042E-18
DEBUG_STATS_RL:                Salt (DYNAMICS)  max=  3.74386348509330E+01
DEBUG_STATS_RL:                Salt (DYNAMICS) mean=  1.88452190606093E+01
DEBUG_STATS_RL:                Salt (DYNAMICS) S.D.=  1.73006949754740E+01
DEBUG_STATS_RL:                  Gu (DYNAMICS)  min= -1.09004990771393E-01
DEBUG_STATS_RL:                  Gu (DYNAMICS)  max=  1.90643067479607E-01
DEBUG_STATS_RL:                  Gu (DYNAMICS) mean=  6.54655666982435E-03
DEBUG_STATS_RL:                  Gu (DYNAMICS) S.D.=  2.61633497264481E-02
DEBUG_STATS_RL:                  Gv (DYNAMICS)  min= -1.02981877021686E-01
DEBUG_STATS_RL:                  Gv (DYNAMICS)  max=  1.15355197447556E-01
DEBUG_STATS_RL:                  Gv (DYNAMICS) mean=  2.89682165105912E-03
DEBUG_STATS_RL:                  Gv (DYNAMICS) S.D.=  1.53268090477532E-02
DEBUG_STATS_RL:               GuNm1 (DYNAMICS)  min= -6.83412974445894E-06
DEBUG_STATS_RL:               GuNm1 (DYNAMICS)  max=  7.05779524947108E-06
DEBUG_STATS_RL:               GuNm1 (DYNAMICS) mean= -1.81528984892079E-08
DEBUG_STATS_RL:               GuNm1 (DYNAMICS) S.D.=  1.10172395914347E-06
DEBUG_STATS_RL:               GvNm1 (DYNAMICS)  min= -8.63940854564254E-06
DEBUG_STATS_RL:               GvNm1 (DYNAMICS)  max=  1.68582101399871E-05
DEBUG_STATS_RL:               GvNm1 (DYNAMICS) mean=  7.73752605383775E-07
DEBUG_STATS_RL:               GvNm1 (DYNAMICS) S.D.=  2.56860740207998E-06
DEBUG_STATS_RL:               GtNm1 (DYNAMICS)  min= -4.58738889132247E-06
DEBUG_STATS_RL:               GtNm1 (DYNAMICS)  max=  3.88651884649288E-06
DEBUG_STATS_RL:               GtNm1 (DYNAMICS) mean=  1.20129176197216E-08
DEBUG_STATS_RL:               GtNm1 (DYNAMICS) S.D.=  2.46818415595870E-07
DEBUG_STATS_RL:               GsNm1 (DYNAMICS)  min= -1.01071135968973E-06
DEBUG_STATS_RL:               GsNm1 (DYNAMICS)  max=  1.09812133810174E-06
DEBUG_STATS_RL:               GsNm1 (DYNAMICS) mean=  1.20743699052916E-10
DEBUG_STATS_RL:               GsNm1 (DYNAMICS) S.D.=  2.34270043534426E-08
DEBUG_STATS_RL:    cg2d_b (SOLVE_FOR_PRESSURE)  min= -1.75342012708739E+04
DEBUG_STATS_RL:    cg2d_b (SOLVE_FOR_PRESSURE)  max=  1.30700493189227E+04
DEBUG_STATS_RL:    cg2d_b (SOLVE_FOR_PRESSURE) mean=  1.08767635316097E+00
DEBUG_STATS_RL:    cg2d_b (SOLVE_FOR_PRESSURE) S.D.=  3.12268092904964E+03
 cg2d: Sum(rhs),rhsMax =   1.43603390805743E-01  1.15169328599231E+00
(PID.TID 0000.0001)  cg2d: iter=     1 ; resid.=  1.73477865502699E-01
(PID.TID 0000.0001)  cg2d: iter=     2 ; resid.=  1.04881154472449E-01
(PID.TID 0000.0001)  cg2d: iter=     3 ; resid.=  9.96418375457722E-02
(PID.TID 0000.0001)  cg2d: iter=     4 ; resid.=  9.53254996928879E-02
(PID.TID 0000.0001)  cg2d: iter=     5 ; resid.=  8.61538016916308E-02
(PID.TID 0000.0001)  cg2d: iter=     6 ; resid.=  7.69524607286421E-02
(PID.TID 0000.0001)  cg2d: iter=     7 ; resid.=  6.92337463300446E-02
(PID.TID 0000.0001)  cg2d: iter=     8 ; resid.=  5.57111210601047E-02
(PID.TID 0000.0001)  cg2d: iter=     9 ; resid.=  4.58459232102047E-02
(PID.TID 0000.0001)  cg2d: iter=    10 ; resid.=  3.85616883118103E-02
(PID.TID 0000.0001)  cg2d: iter=    11 ; resid.=  3.31054514530636E-02
(PID.TID 0000.0001)  cg2d: iter=    12 ; resid.=  2.71825885129826E-02
(PID.TID 0000.0001)  cg2d: iter=    13 ; resid.=  2.13415504555653E-02
(PID.TID 0000.0001)  cg2d: iter=    14 ; resid.=  1.77937015285173E-02
(PID.TID 0000.0001)  cg2d: iter=    15 ; resid.=  1.57408521993511E-02
(PID.TID 0000.0001)  cg2d: iter=    16 ; resid.=  1.44283080805594E-02
(PID.TID 0000.0001)  cg2d: iter=    17 ; resid.=  1.33566516094957E-02
(PID.TID 0000.0001)  cg2d: iter=    18 ; resid.=  1.07858876677751E-02
(PID.TID 0000.0001)  cg2d: iter=    19 ; resid.=  8.15690027976505E-03
(PID.TID 0000.0001)  cg2d: iter=    20 ; resid.=  6.27250894061866E-03
(PID.TID 0000.0001)  cg2d: iter=    21 ; resid.=  5.10876930667311E-03
(PID.TID 0000.0001)  cg2d: iter=    22 ; resid.=  4.26094571976409E-03
(PID.TID 0000.0001)  cg2d: iter=    23 ; resid.=  3.45806130175401E-03
(PID.TID 0000.0001)  cg2d: iter=    24 ; resid.=  3.13197061330150E-03
(PID.TID 0000.0001)  cg2d: iter=    25 ; resid.=  2.91838557032882E-03
(PID.TID 0000.0001)  cg2d: iter=    26 ; resid.=  2.62680228179911E-03
(PID.TID 0000.0001)  cg2d: iter=    27 ; resid.=  2.23354553857898E-03
(PID.TID 0000.0001)  cg2d: iter=    28 ; resid.=  1.88840601600669E-03
(PID.TID 0000.0001)  cg2d: iter=    29 ; resid.=  1.47120456578922E-03
(PID.TID 0000.0001)  cg2d: iter=    30 ; resid.=  1.14252986311683E-03
(PID.TID 0000.0001)  cg2d: iter=    31 ; resid.=  9.82991675129708E-04
(PID.TID 0000.0001)  cg2d: iter=    32 ; resid.=  7.64866194083678E-04
(PID.TID 0000.0001)  cg2d: iter=    33 ; resid.=  5.69523838750892E-04
(PID.TID 0000.0001)  cg2d: iter=    34 ; resid.=  4.37781425601564E-04
(PID.TID 0000.0001)  cg2d: iter=    35 ; resid.=  3.52753586017664E-04
(PID.TID 0000.0001)  cg2d: iter=    36 ; resid.=  2.76119223534133E-04
(PID.TID 0000.0001)  cg2d: iter=    37 ; resid.=  2.32405129007041E-04
(PID.TID 0000.0001)  cg2d: iter=    38 ; resid.=  2.20351959878839E-04
(PID.TID 0000.0001)  cg2d: iter=    39 ; resid.=  2.00887329858886E-04
(PID.TID 0000.0001)  cg2d: iter=    40 ; resid.=  1.75869280261265E-04
(PID.TID 0000.0001)  cg2d: iter=    41 ; resid.=  1.52406546821942E-04
(PID.TID 0000.0001)  cg2d: iter=    42 ; resid.=  1.36326256741645E-04
(PID.TID 0000.0001)  cg2d: iter=    43 ; resid.=  1.17398565553729E-04
(PID.TID 0000.0001)  cg2d: iter=    44 ; resid.=  9.54922324036872E-05
(PID.TID 0000.0001)  cg2d: iter=    45 ; resid.=  8.08425367879358E-05
(PID.TID 0000.0001)  cg2d: iter=    46 ; resid.=  6.52186975992492E-05
(PID.TID 0000.0001)  cg2d: iter=    47 ; resid.=  5.01804680637054E-05
(PID.TID 0000.0001)  cg2d: iter=    48 ; resid.=  3.90297458753577E-05
(PID.TID 0000.0001)  cg2d: iter=    49 ; resid.=  3.19618755509294E-05
(PID.TID 0000.0001)  cg2d: iter=    50 ; resid.=  2.69791997224878E-05
(PID.TID 0000.0001)  cg2d: iter=    51 ; resid.=  2.19975144570775E-05
(PID.TID 0000.0001)  cg2d: iter=    52 ; resid.=  1.65001470963095E-05
(PID.TID 0000.0001)  cg2d: iter=    53 ; resid.=  1.17869232496069E-05
(PID.TID 0000.0001)  cg2d: iter=    54 ; resid.=  8.67761422964609E-06
(PID.TID 0000.0001)  cg2d: iter=    55 ; resid.=  6.77587128422769E-06
(PID.TID 0000.0001)  cg2d: iter=    56 ; resid.=  5.56065306087724E-06
(PID.TID 0000.0001)  cg2d: iter=    57 ; resid.=  4.69366393584283E-06
(PID.TID 0000.0001)  cg2d: iter=    58 ; resid.=  3.78599215877008E-06
(PID.TID 0000.0001)  cg2d: iter=    59 ; resid.=  2.93611370305113E-06
(PID.TID 0000.0001)  cg2d: iter=    60 ; resid.=  2.11322176225308E-06
(PID.TID 0000.0001)  cg2d: iter=    61 ; resid.=  1.68337242191051E-06
(PID.TID 0000.0001)  cg2d: iter=    62 ; resid.=  1.51145531908862E-06
(PID.TID 0000.0001)  cg2d: iter=    63 ; resid.=  1.38728507134106E-06
(PID.TID 0000.0001)  cg2d: iter=    64 ; resid.=  1.16180682956214E-06
(PID.TID 0000.0001)  cg2d: iter=    65 ; resid.=  9.61711777580840E-07
(PID.TID 0000.0001)  cg2d: iter=    66 ; resid.=  7.63920934836630E-07
(PID.TID 0000.0001)  cg2d: iter=    67 ; resid.=  6.37819059294155E-07
(PID.TID 0000.0001)  cg2d: iter=    68 ; resid.=  5.49585782823303E-07
(PID.TID 0000.0001)  cg2d: iter=    69 ; resid.=  4.69346819825688E-07
(PID.TID 0000.0001)  cg2d: iter=    70 ; resid.=  3.69976637500947E-07
(PID.TID 0000.0001)  cg2d: iter=    71 ; resid.=  2.64935331357364E-07
(PID.TID 0000.0001)  cg2d: iter=    72 ; resid.=  2.06931606971462E-07
(PID.TID 0000.0001)  cg2d: iter=    73 ; resid.=  1.87651497377466E-07
(PID.TID 0000.0001)  cg2d: iter=    74 ; resid.=  1.70705553554407E-07
(PID.TID 0000.0001)  cg2d: iter=    75 ; resid.=  1.39739843301738E-07
(PID.TID 0000.0001)  cg2d: iter=    76 ; resid.=  1.11764652326812E-07
(PID.TID 0000.0001)  cg2d: iter=    77 ; resid.=  9.09801334917674E-08
(PID.TID 0000.0001)  cg2d: iter=    78 ; resid.=  7.45861781163768E-08
(PID.TID 0000.0001)  cg2d: iter=    79 ; resid.=  5.76207993763721E-08
(PID.TID 0000.0001)  cg2d: iter=    80 ; resid.=  4.30438033872221E-08
(PID.TID 0000.0001)  cg2d: iter=    81 ; resid.=  3.43347674142099E-08
(PID.TID 0000.0001)  cg2d: iter=    82 ; resid.=  2.87167486635922E-08
(PID.TID 0000.0001)  cg2d: iter=    83 ; resid.=  2.32822827883203E-08
(PID.TID 0000.0001)  cg2d: iter=    84 ; resid.=  1.85106147872570E-08
(PID.TID 0000.0001)  cg2d: iter=    85 ; resid.=  1.52631362103442E-08
(PID.TID 0000.0001)  cg2d: iter=    86 ; resid.=  1.34702338352817E-08
(PID.TID 0000.0001)  cg2d: iter=    87 ; resid.=  1.26513078060111E-08
(PID.TID 0000.0001)  cg2d: iter=    88 ; resid.=  1.01104466691745E-08
(PID.TID 0000.0001)  cg2d: iter=    89 ; resid.=  8.17304154618589E-09
(PID.TID 0000.0001)  cg2d: iter=    90 ; resid.=  7.39067986492998E-09
(PID.TID 0000.0001)  cg2d: iter=    91 ; resid.=  6.28231686991878E-09
(PID.TID 0000.0001)  cg2d: iter=    92 ; resid.=  4.83796978897245E-09
(PID.TID 0000.0001)  cg2d: iter=    93 ; resid.=  3.37863657232643E-09
(PID.TID 0000.0001)  cg2d: iter=    94 ; resid.=  2.29900210577991E-09
(PID.TID 0000.0001)  cg2d: iter=    95 ; resid.=  1.63132662299949E-09
(PID.TID 0000.0001)  cg2d: iter=    96 ; resid.=  1.25857705560508E-09
(PID.TID 0000.0001)  cg2d: iter=    97 ; resid.=  1.00940350372202E-09
(PID.TID 0000.0001)  cg2d: iter=    98 ; resid.=  7.53425438361541E-10
(PID.TID 0000.0001)  cg2d: iter=    99 ; resid.=  5.71584016235577E-10
(PID.TID 0000.0001)  cg2d: iter=   100 ; resid.=  4.57624224000617E-10
(PID.TID 0000.0001)  cg2d: iter=   101 ; resid.=  3.77561440194298E-10
(PID.TID 0000.0001)  cg2d: iter=   102 ; resid.=  3.30283954681651E-10
(PID.TID 0000.0001)  cg2d: iter=   103 ; resid.=  2.79860209501373E-10
(PID.TID 0000.0001)  cg2d: iter=   104 ; resid.=  2.19027678059852E-10
(PID.TID 0000.0001)  cg2d: iter=   105 ; resid.=  1.66742420094523E-10
(PID.TID 0000.0001)  cg2d: iter=   106 ; resid.=  1.31149045611757E-10
(PID.TID 0000.0001)  cg2d: iter=   107 ; resid.=  9.95514342612109E-11
(PID.TID 0000.0001)  cg2d: iter=   108 ; resid.=  7.34029976393866E-11
(PID.TID 0000.0001)  cg2d: iter=   109 ; resid.=  5.51943179187343E-11
(PID.TID 0000.0001)  cg2d: iter=   110 ; resid.=  4.41809028476013E-11
(PID.TID 0000.0001)  cg2d: iter=   111 ; resid.=  3.61204388824944E-11
(PID.TID 0000.0001)  cg2d: iter=   112 ; resid.=  3.12257579361586E-11
(PID.TID 0000.0001)  cg2d: iter=   113 ; resid.=  2.51440532829728E-11
(PID.TID 0000.0001)  cg2d: iter=   114 ; resid.=  1.87694353434871E-11
(PID.TID 0000.0001)  cg2d: iter=   115 ; resid.=  1.64536227649064E-11
(PID.TID 0000.0001)  cg2d: iter=   116 ; resid.=  1.39281036779600E-11
(PID.TID 0000.0001)  cg2d: iter=   117 ; resid.=  1.03279572151225E-11
(PID.TID 0000.0001)  cg2d: iter=   118 ; resid.=  7.02731965171992E-12
(PID.TID 0000.0001)  cg2d: iter=   119 ; resid.=  4.88528439634275E-12
(PID.TID 0000.0001)  cg2d: iter=   120 ; resid.=  3.40924416934942E-12
(PID.TID 0000.0001)  cg2d: iter=   121 ; resid.=  2.46242171814957E-12
(PID.TID 0000.0001)  cg2d: iter=   122 ; resid.=  1.80100329784575E-12
(PID.TID 0000.0001)  cg2d: iter=   123 ; resid.=  1.35839370822052E-12
(PID.TID 0000.0001)  cg2d: iter=   124 ; resid.=  1.07812316554013E-12
(PID.TID 0000.0001)  cg2d: iter=   125 ; resid.=  8.66229491092725E-13
(PID.TID 0000.0001)  cg2d: iter=   126 ; resid.=  6.67453816136715E-13
(PID.TID 0000.0001)  cg2d: iter=   127 ; resid.=  4.65927038009761E-13
(PID.TID 0000.0001)  cg2d: iter=   128 ; resid.=  3.22732025033686E-13
(PID.TID 0000.0001)  cg2d: iter=   129 ; resid.=  2.18911660841227E-13
(PID.TID 0000.0001)  cg2d: iter=   130 ; resid.=  1.66169296242695E-13
(PID.TID 0000.0001)  cg2d: iter=   131 ; resid.=  1.31491056820673E-13
(PID.TID 0000.0001)  cg2d: iter=   132 ; resid.=  1.01657048695795E-13
(PID.TID 0000.0001)  cg2d: iter=   133 ; resid.=  8.17824162793600E-14
DEBUG_STATS_RL:    cg2d_x (SOLVE_FOR_PRESSURE)  min= -1.48909715078926E+01
DEBUG_STATS_RL:    cg2d_x (SOLVE_FOR_PRESSURE)  max=  8.19512646007050E+00
DEBUG_STATS_RL:    cg2d_x (SOLVE_FOR_PRESSURE) mean= -1.60196642009263E+00
DEBUG_STATS_RL:    cg2d_x (SOLVE_FOR_PRESSURE) S.D.=  6.31832532284661E+00
(PID.TID 0000.0001)      cg2d_init_res =   5.91902521969114E-01
(PID.TID 0000.0001)      cg2d_iters(min,last) =      -1     133
(PID.TID 0000.0001)      cg2d_last_res =   8.17824162793600E-14
(PID.TID 0000.0001) // =======================================================
(PID.TID 0000.0001) // Begin MONITOR dynamic field statistics
(PID.TID 0000.0001) // =======================================================
(PID.TID 0000.0001) %MON time_tsnumber                =                    16
(PID.TID 0000.0001) %MON time_secondsf                =   1.3824000000000E+06
(PID.TID 0000.0001) %MON dynstat_eta_max              =   8.3538496025180E-01
(PID.TID 0000.0001) %MON dynstat_eta_min              =  -1.5179379722622E+00
(PID.TID 0000.0001) %MON dynstat_eta_mean             =  -1.1348554071074E-03
(PID.TID 0000.0001) %MON dynstat_eta_sd               =   5.7271105688915E-01
(PID.TID 0000.0001) %MON dynstat_eta_del2             =   1.7207979380523E-03
(PID.TID 0000.0001) %MON dynstat_uvel_max             =   1.8825240463960E-01
(PID.TID 0000.0001) %MON dynstat_uvel_min             =  -1.0907341499553E-01
(PID.TID 0000.0001) %MON dynstat_uvel_mean            =   8.4101406490554E-04
(PID.TID 0000.0001) %MON dynstat_uvel_sd              =   1.5676966089173E-02
(PID.TID 0000.0001) %MON dynstat_uvel_del2            =   9.5586531997432E-05
(PID.TID 0000.0001) %MON dynstat_vvel_max             =   1.2295361343704E-01
(PID.TID 0000.0001) %MON dynstat_vvel_min             =  -1.0758104013852E-01
(PID.TID 0000.0001) %MON dynstat_vvel_mean            =   8.6642463409493E-05
(PID.TID 0000.0001) %MON dynstat_vvel_sd              =   8.8231561265788E-03
(PID.TID 0000.0001) %MON dynstat_vvel_del2            =   8.5886284575330E-05
(PID.TID 0000.0001) %MON dynstat_wvel_max             =   1.5414789690657E-04
(PID.TID 0000.0001) %MON dynstat_wvel_min             =  -1.9250941046211E-04
(PID.TID 0000.0001) %MON dynstat_wvel_mean            =  -5.7279517381793E-22
(PID.TID 0000.0001) %MON dynstat_wvel_sd              =   1.7267773804321E-05
(PID.TID 0000.0001) %MON dynstat_wvel_del2            =   1.9473160939015E-07
(PID.TID 0000.0001) %MON dynstat_theta_max            =   2.9838269023811E+01
(PID.TID 0000.0001) %MON dynstat_theta_min            =  -2.0218335625472E+00
(PID.TID 0000.0001) %MON dynstat_theta_mean           =   3.6199824745111E+00
(PID.TID 0000.0001) %MON dynstat_theta_sd             =   4.4153585667601E+00
(PID.TID 0000.0001) %MON dynstat_theta_del2           =   4.8864108453246E-03
(PID.TID 0000.0001) %MON dynstat_salt_max             =   3.7438634850933E+01
(PID.TID 0000.0001) %MON dynstat_salt_min             =   2.9761857028291E+01
(PID.TID 0000.0001) %MON dynstat_salt_mean            =   3.4717981334183E+01
(PID.TID 0000.0001) %MON dynstat_salt_sd              =   2.9620350450823E-01
(PID.TID 0000.0001) %MON dynstat_salt_del2            =   1.0118491596092E-03
(PID.TID 0000.0001) %MON dynstat_sst_max              =   2.9838269023811E+01
(PID.TID 0000.0001) %MON dynstat_sst_min              =  -2.0218335625472E+00
(PID.TID 0000.0001) %MON dynstat_sst_mean             =   1.8666996606494E+01
(PID.TID 0000.0001) %MON dynstat_sst_sd               =   9.0533146200825E+00
(PID.TID 0000.0001) %MON dynstat_sst_del2             =   2.6254097568617E-02
(PID.TID 0000.0001) %MON dynstat_sss_max              =   3.7429220687950E+01
(PID.TID 0000.0001) %MON dynstat_sss_min              =   2.9761857028291E+01
(PID.TID 0000.0001) %MON dynstat_sss_mean             =   3.4854749713919E+01
(PID.TID 0000.0001) %MON dynstat_sss_sd               =   9.7005980176048E-01
(PID.TID 0000.0001) %MON dynstat_sss_del2             =   7.9977889576611E-03
(PID.TID 0000.0001) %MON forcing_qnet_max             =   4.4161361694336E+02
(PID.TID 0000.0001) %MON forcing_qnet_min             =  -1.8132531738281E+02
(PID.TID 0000.0001) %MON forcing_qnet_mean            =  -1.6512526001044E+01
(PID.TID 0000.0001) %MON forcing_qnet_sd              =   1.0987288293460E+02
(PID.TID 0000.0001) %MON forcing_qnet_del2            =   1.0245701543512E+00
(PID.TID 0000.0001) %MON forcing_qsw_max              =   0.0000000000000E+00
(PID.TID 0000.0001) %MON forcing_qsw_min              =   0.0000000000000E+00
(PID.TID 0000.0001) %MON forcing_qsw_mean             =   0.0000000000000E+00
(PID.TID 0000.0001) %MON forcing_qsw_sd               =   0.0000000000000E+00
(PID.TID 0000.0001) %MON forcing_qsw_del2             =   0.0000000000000E+00
(PID.TID 0000.0001) %MON forcing_empmr_max            =   8.2174238968946E-05
(PID.TID 0000.0001) %MON forcing_empmr_min            =  -7.6155956207913E-05
(PID.TID 0000.0001) %MON forcing_empmr_mean           =   9.2293706211063E-07
(PID.TID 0000.0001) %MON forcing_empmr_sd             =   2.8800050217957E-05
(PID.TID 0000.0001) %MON forcing_empmr_del2           =   3.6757632549621E-07
(PID.TID 0000.0001) %MON forcing_fu_max               =   2.7877888083458E-01
(PID.TID 0000.0001) %MON forcing_fu_min               =  -1.7088057100773E-01
(PID.TID 0000.0001) %MON forcing_fu_mean              =   1.6001735152566E-02
(PID.TID 0000.0001) %MON forcing_fu_sd                =   9.1062350670783E-02
(PID.TID 0000.0001) %MON forcing_fu_del2              =   7.2483493833855E-04
(PID.TID 0000.0001) %MON forcing_fv_max               =   2.3312132060528E-01
(PID.TID 0000.0001) %MON forcing_fv_min               =  -1.7813690006733E-01
(PID.TID 0000.0001) %MON forcing_fv_mean              =  -5.2588977395051E-03
(PID.TID 0000.0001) %MON forcing_fv_sd                =   4.8248606070107E-02
(PID.TID 0000.0001) %MON forcing_fv_del2              =   4.9948324922575E-04
(PID.TID 0000.0001) %MON trAdv_CFL_u_max              =   5.3241166848435E-02
(PID.TID 0000.0001) %MON trAdv_CFL_v_max              =   2.3387135552218E-02
(PID.TID 0000.0001) %MON trAdv_CFL_w_max              =   6.5348636865966E-02
(PID.TID 0000.0001) %MON advcfl_uvel_max              =   5.1838865645492E-02
(PID.TID 0000.0001) %MON advcfl_vvel_max              =   2.3887915151936E-02
(PID.TID 0000.0001) %MON advcfl_wvel_max              =   5.8596936629222E-02
(PID.TID 0000.0001) %MON advcfl_W_hf_max              =   6.4700784194766E-02
(PID.TID 0000.0001) %MON pe_b_mean                    =   4.1971456555817E-04
(PID.TID 0000.0001) %MON ke_max                       =   1.8418936852703E-02
(PID.TID 0000.0001) %MON ke_mean                      =   1.4692991492953E-04
(PID.TID 0000.0001) %MON ke_vol                       =   1.3226782436723E+18
(PID.TID 0000.0001) %MON vort_r_min                   =  -3.9245665027725E-07
(PID.TID 0000.0001) %MON vort_r_max                   =   3.8728647354755E-07
(PID.TID 0000.0001) %MON vort_a_mean                  =  -2.5274806988282E-05
(PID.TID 0000.0001) %MON vort_a_sd                    =   7.3604437601944E-05
(PID.TID 0000.0001) %MON vort_p_mean                  =  -3.1845655283929E-05
(PID.TID 0000.0001) %MON vort_p_sd                    =   1.3162376508975E-04
(PID.TID 0000.0001) %MON surfExpan_theta_mean         =   4.6007459472403E-07
(PID.TID 0000.0001) %MON surfExpan_salt_mean          =  -1.5536002596993E-08
(PID.TID 0000.0001) // =======================================================
(PID.TID 0000.0001) // End MONITOR dynamic field statistics
(PID.TID 0000.0001) // =======================================================
 EXTERNAL_FIELDS_LOAD,        16 : iP,iLd,i0,i1=    1    2    1    2 ; Wght=  0.9666666667  0.0333333333
 EXTERNAL_FIELDS_LOAD: (fu0,1),fu,fv= -3.5633E-02 -1.4435E-02 -3.4926E-02 -5.5936E-02
 EXTERNAL_FIELDS_LOAD: SST,SSS,Q,E-P=  9.0875E-01  3.4705E+01  2.6493E+02  1.1528E-05
DEBUG_STATS_RL:          Uvel (THERMODYNAMICS)  min= -1.09073414995535E-01
DEBUG_STATS_RL:          Uvel (THERMODYNAMICS)  max=  1.88252404639602E-01
DEBUG_STATS_RL:          Uvel (THERMODYNAMICS) mean=  6.59888075322706E-03
DEBUG_STATS_RL:          Uvel (THERMODYNAMICS) S.D.=  2.59409142683083E-02
DEBUG_STATS_RL:          Vvel (THERMODYNAMICS)  min= -1.07581040138520E-01
DEBUG_STATS_RL:          Vvel (THERMODYNAMICS)  max=  1.22953613437043E-01
DEBUG_STATS_RL:          Vvel (THERMODYNAMICS) mean=  8.29634188535399E-04
DEBUG_STATS_RL:          Vvel (THERMODYNAMICS) S.D.=  1.43798567985683E-02
DEBUG_STATS_RL:          Wvel (THERMODYNAMICS)  min= -1.92509410462114E-04
DEBUG_STATS_RL:          Wvel (THERMODYNAMICS)  max=  1.54147896906573E-04
DEBUG_STATS_RL:          Wvel (THERMODYNAMICS) mean=  6.04401460741778E-08
DEBUG_STATS_RL:          Wvel (THERMODYNAMICS) S.D.=  1.51472565632174E-05
DEBUG_STATS_RL:         Theta (THERMODYNAMICS)  min= -2.02025013542639E+00
DEBUG_STATS_RL:         Theta (THERMODYNAMICS)  max=  2.98405097271602E+01
DEBUG_STATS_RL:         Theta (THERMODYNAMICS) mean=  3.20886188689149E+00
DEBUG_STATS_RL:         Theta (THERMODYNAMICS) S.D.=  5.85609825405598E+00
DEBUG_STATS_RL:          Salt (THERMODYNAMICS)  min= -5.20417042793042E-18
DEBUG_STATS_RL:          Salt (THERMODYNAMICS)  max=  3.74393166065914E+01
DEBUG_STATS_RL:          Salt (THERMODYNAMICS) mean=  1.88452203016321E+01
DEBUG_STATS_RL:          Salt (THERMODYNAMICS) S.D.=  1.73006968458791E+01
DEBUG_STATS_RL:         GtNm1 (THERMODYNAMICS)  min= -3.17201214795641E-06
DEBUG_STATS_RL:         GtNm1 (THERMODYNAMICS)  max=  2.63532135101584E-06
DEBUG_STATS_RL:         GtNm1 (THERMODYNAMICS) mean=  9.32624807995915E-09
DEBUG_STATS_RL:         GtNm1 (THERMODYNAMICS) S.D.=  2.37956843617831E-07
DEBUG_STATS_RL:         GsNm1 (THERMODYNAMICS)  min= -5.65240115230399E-07
DEBUG_STATS_RL:         GsNm1 (THERMODYNAMICS)  max=  4.31540127808680E-07
DEBUG_STATS_RL:         GsNm1 (THERMODYNAMICS) mean=  4.79333013283056E-11
DEBUG_STATS_RL:         GsNm1 (THERMODYNAMICS) S.D.=  2.04871877495758E-08
DEBUG_STATS_RL:                EtaN (DYNAMICS)  min= -1.51793797226218E+00
DEBUG_STATS_RL:                EtaN (DYNAMICS)  max=  8.35384960251802E-01
DEBUG_STATS_RL:                EtaN (DYNAMICS) mean= -1.63299329265305E-01
DEBUG_STATS_RL:                EtaN (DYNAMICS) S.D.=  6.44069859617393E-01
DEBUG_STATS_RL:                Uvel (DYNAMICS)  min= -1.09073414995535E-01
DEBUG_STATS_RL:                Uvel (DYNAMICS)  max=  1.88252404639602E-01
DEBUG_STATS_RL:                Uvel (DYNAMICS) mean=  6.59888075322706E-03
DEBUG_STATS_RL:                Uvel (DYNAMICS) S.D.=  2.59409142683083E-02
DEBUG_STATS_RL:                Vvel (DYNAMICS)  min= -1.07581040138520E-01
DEBUG_STATS_RL:                Vvel (DYNAMICS)  max=  1.22953613437043E-01
DEBUG_STATS_RL:                Vvel (DYNAMICS) mean=  8.29634188535399E-04
DEBUG_STATS_RL:                Vvel (DYNAMICS) S.D.=  1.43798567985683E-02
DEBUG_STATS_RL:                Wvel (DYNAMICS)  min= -1.92509410462114E-04
DEBUG_STATS_RL:                Wvel (DYNAMICS)  max=  1.54147896906573E-04
DEBUG_STATS_RL:                Wvel (DYNAMICS) mean=  6.04401460741778E-08
DEBUG_STATS_RL:                Wvel (DYNAMICS) S.D.=  1.51472565632174E-05
DEBUG_STATS_RL:               Theta (DYNAMICS)  min= -2.02025013542639E+00
DEBUG_STATS_RL:               Theta (DYNAMICS)  max=  2.98405097271602E+01
DEBUG_STATS_RL:               Theta (DYNAMICS) mean=  3.20886188689149E+00
DEBUG_STATS_RL:               Theta (DYNAMICS) S.D.=  5.85609825405598E+00
DEBUG_STATS_RL:                Salt (DYNAMICS)  min= -5.20417042793042E-18
DEBUG_STATS_RL:                Salt (DYNAMICS)  max=  3.74393166065914E+01
DEBUG_STATS_RL:                Salt (DYNAMICS) mean=  1.88452203016321E+01
DEBUG_STATS_RL:                Salt (DYNAMICS) S.D.=  1.73006968458791E+01
DEBUG_STATS_RL:                  Gu (DYNAMICS)  min= -1.16498084956889E-01
DEBUG_STATS_RL:                  Gu (DYNAMICS)  max=  1.90511134808597E-01
DEBUG_STATS_RL:                  Gu (DYNAMICS) mean=  6.40129087107574E-03
DEBUG_STATS_RL:                  Gu (DYNAMICS) S.D.=  2.59236323052476E-02
DEBUG_STATS_RL:                  Gv (DYNAMICS)  min= -1.04559462416918E-01
DEBUG_STATS_RL:                  Gv (DYNAMICS)  max=  1.24591865654685E-01
DEBUG_STATS_RL:                  Gv (DYNAMICS) mean=  3.27477714646694E-03
DEBUG_STATS_RL:                  Gv (DYNAMICS) S.D.=  1.60404891546695E-02
DEBUG_STATS_RL:               GuNm1 (DYNAMICS)  min= -6.97123892540062E-06
DEBUG_STATS_RL:               GuNm1 (DYNAMICS)  max=  7.19857973218757E-06
DEBUG_STATS_RL:               GuNm1 (DYNAMICS) mean= -1.66204001077335E-08
DEBUG_STATS_RL:               GuNm1 (DYNAMICS) S.D.=  1.10668801299831E-06
DEBUG_STATS_RL:               GvNm1 (DYNAMICS)  min= -8.69161960096500E-06
DEBUG_STATS_RL:               GvNm1 (DYNAMICS)  max=  1.69004350326091E-05
DEBUG_STATS_RL:               GvNm1 (DYNAMICS) mean=  7.73202965691350E-07
DEBUG_STATS_RL:               GvNm1 (DYNAMICS) S.D.=  2.56728043623741E-06
DEBUG_STATS_RL:               GtNm1 (DYNAMICS)  min= -3.17201214795641E-06
DEBUG_STATS_RL:               GtNm1 (DYNAMICS)  max=  2.63532135101584E-06
DEBUG_STATS_RL:               GtNm1 (DYNAMICS) mean=  9.32624807995915E-09
DEBUG_STATS_RL:               GtNm1 (DYNAMICS) S.D.=  2.37956843617831E-07
DEBUG_STATS_RL:               GsNm1 (DYNAMICS)  min= -5.65240115230399E-07
DEBUG_STATS_RL:               GsNm1 (DYNAMICS)  max=  4.31540127808680E-07
DEBUG_STATS_RL:               GsNm1 (DYNAMICS) mean=  4.79333013283056E-11
DEBUG_STATS_RL:               GsNm1 (DYNAMICS) S.D.=  2.04871877495758E-08
DEBUG_STATS_RL:    cg2d_b (SOLVE_FOR_PRESSURE)  min= -1.83681371031172E+04
DEBUG_STATS_RL:    cg2d_b (SOLVE_FOR_PRESSURE)  max=  1.30734511520812E+04
DEBUG_STATS_RL:    cg2d_b (SOLVE_FOR_PRESSURE) mean=  1.16157315150592E+00
DEBUG_STATS_RL:    cg2d_b (SOLVE_FOR_PRESSURE) S.D.=  3.15515758639921E+03
 cg2d: Sum(rhs),rhsMax =   1.46397091367518E-01  1.20646842425529E+00
(PID.TID 0000.0001)  cg2d: iter=     1 ; resid.=  1.70008346888611E-01
(PID.TID 0000.0001)  cg2d: iter=     2 ; resid.=  1.00079848909301E-01
(PID.TID 0000.0001)  cg2d: iter=     3 ; resid.=  9.31115724836259E-02
(PID.TID 0000.0001)  cg2d: iter=     4 ; resid.=  8.39390892745967E-02
(PID.TID 0000.0001)  cg2d: iter=     5 ; resid.=  7.50837835256911E-02
(PID.TID 0000.0001)  cg2d: iter=     6 ; resid.=  6.52224952408616E-02
(PID.TID 0000.0001)  cg2d: iter=     7 ; resid.=  6.09090241085494E-02
(PID.TID 0000.0001)  cg2d: iter=     8 ; resid.=  4.92536581495991E-02
(PID.TID 0000.0001)  cg2d: iter=     9 ; resid.=  4.13124476276590E-02
(PID.TID 0000.0001)  cg2d: iter=    10 ; resid.=  3.46573122232969E-02
(PID.TID 0000.0001)  cg2d: iter=    11 ; resid.=  3.06069304377852E-02
(PID.TID 0000.0001)  cg2d: iter=    12 ; resid.=  2.57326133202463E-02
(PID.TID 0000.0001)  cg2d: iter=    13 ; resid.=  2.08338024920272E-02
(PID.TID 0000.0001)  cg2d: iter=    14 ; resid.=  1.70104955560590E-02
(PID.TID 0000.0001)  cg2d: iter=    15 ; resid.=  1.50537640546690E-02
(PID.TID 0000.0001)  cg2d: iter=    16 ; resid.=  1.40066066508980E-02
(PID.TID 0000.0001)  cg2d: iter=    17 ; resid.=  1.31922674985985E-02
(PID.TID 0000.0001)  cg2d: iter=    18 ; resid.=  1.05412074300412E-02
(PID.TID 0000.0001)  cg2d: iter=    19 ; resid.=  7.98479510911019E-03
(PID.TID 0000.0001)  cg2d: iter=    20 ; resid.=  6.07914451652915E-03
(PID.TID 0000.0001)  cg2d: iter=    21 ; resid.=  4.86478629188184E-03
(PID.TID 0000.0001)  cg2d: iter=    22 ; resid.=  3.93016639890527E-03
(PID.TID 0000.0001)  cg2d: iter=    23 ; resid.=  3.12558241133695E-03
(PID.TID 0000.0001)  cg2d: iter=    24 ; resid.=  2.81774806635535E-03
(PID.TID 0000.0001)  cg2d: iter=    25 ; resid.=  2.63255026564813E-03
(PID.TID 0000.0001)  cg2d: iter=    26 ; resid.=  2.37388315327175E-03
(PID.TID 0000.0001)  cg2d: iter=    27 ; resid.=  2.02123633786788E-03
(PID.TID 0000.0001)  cg2d: iter=    28 ; resid.=  1.75799523725332E-03
(PID.TID 0000.0001)  cg2d: iter=    29 ; resid.=  1.38713167077558E-03
(PID.TID 0000.0001)  cg2d: iter=    30 ; resid.=  1.06472028025397E-03
(PID.TID 0000.0001)  cg2d: iter=    31 ; resid.=  9.03230265549551E-04
(PID.TID 0000.0001)  cg2d: iter=    32 ; resid.=  7.18384424594799E-04
(PID.TID 0000.0001)  cg2d: iter=    33 ; resid.=  5.44666945956548E-04
(PID.TID 0000.0001)  cg2d: iter=    34 ; resid.=  4.18636303626566E-04
(PID.TID 0000.0001)  cg2d: iter=    35 ; resid.=  3.32499891941867E-04
(PID.TID 0000.0001)  cg2d: iter=    36 ; resid.=  2.55430357483210E-04
(PID.TID 0000.0001)  cg2d: iter=    37 ; resid.=  2.11106702404839E-04
(PID.TID 0000.0001)  cg2d: iter=    38 ; resid.=  2.01586878607608E-04
(PID.TID 0000.0001)  cg2d: iter=    39 ; resid.=  1.78249070180686E-04
(PID.TID 0000.0001)  cg2d: iter=    40 ; resid.=  1.54542461258602E-04
(PID.TID 0000.0001)  cg2d: iter=    41 ; resid.=  1.29850689384526E-04
(PID.TID 0000.0001)  cg2d: iter=    42 ; resid.=  1.15098717636937E-04
(PID.TID 0000.0001)  cg2d: iter=    43 ; resid.=  9.68265615132401E-05
(PID.TID 0000.0001)  cg2d: iter=    44 ; resid.=  8.02685485481015E-05
(PID.TID 0000.0001)  cg2d: iter=    45 ; resid.=  6.99684334437709E-05
(PID.TID 0000.0001)  cg2d: iter=    46 ; resid.=  5.98263907886843E-05
(PID.TID 0000.0001)  cg2d: iter=    47 ; resid.=  4.80895999069345E-05
(PID.TID 0000.0001)  cg2d: iter=    48 ; resid.=  3.85849152681538E-05
(PID.TID 0000.0001)  cg2d: iter=    49 ; resid.=  3.13652068599598E-05
(PID.TID 0000.0001)  cg2d: iter=    50 ; resid.=  2.70192458900632E-05
(PID.TID 0000.0001)  cg2d: iter=    51 ; resid.=  2.19232225193354E-05
(PID.TID 0000.0001)  cg2d: iter=    52 ; resid.=  1.63977822870145E-05
(PID.TID 0000.0001)  cg2d: iter=    53 ; resid.=  1.16887744394337E-05
(PID.TID 0000.0001)  cg2d: iter=    54 ; resid.=  8.69138239524089E-06
(PID.TID 0000.0001)  cg2d: iter=    55 ; resid.=  6.92379363191488E-06
(PID.TID 0000.0001)  cg2d: iter=    56 ; resid.=  5.73206861361037E-06
(PID.TID 0000.0001)  cg2d: iter=    57 ; resid.=  4.81243160688676E-06
(PID.TID 0000.0001)  cg2d: iter=    58 ; resid.=  4.03739103669135E-06
(PID.TID 0000.0001)  cg2d: iter=    59 ; resid.=  3.24792508378280E-06
(PID.TID 0000.0001)  cg2d: iter=    60 ; resid.=  2.46841596974963E-06
(PID.TID 0000.0001)  cg2d: iter=    61 ; resid.=  2.02322252494701E-06
(PID.TID 0000.0001)  cg2d: iter=    62 ; resid.=  1.79393960398846E-06
(PID.TID 0000.0001)  cg2d: iter=    63 ; resid.=  1.54117229519270E-06
(PID.TID 0000.0001)  cg2d: iter=    64 ; resid.=  1.23293209121731E-06
(PID.TID 0000.0001)  cg2d: iter=    65 ; resid.=  9.78718489916103E-07
(PID.TID 0000.0001)  cg2d: iter=    66 ; resid.=  7.30672646254259E-07
(PID.TID 0000.0001)  cg2d: iter=    67 ; resid.=  5.58748813877858E-07
(PID.TID 0000.0001)  cg2d: iter=    68 ; resid.=  4.36144183338313E-07
(PID.TID 0000.0001)  cg2d: iter=    69 ; resid.=  3.40665168267894E-07
(PID.TID 0000.0001)  cg2d: iter=    70 ; resid.=  2.54836416494997E-07
(PID.TID 0000.0001)  cg2d: iter=    71 ; resid.=  1.76895583669087E-07
(PID.TID 0000.0001)  cg2d: iter=    72 ; resid.=  1.28443601863567E-07
(PID.TID 0000.0001)  cg2d: iter=    73 ; resid.=  1.04853110926426E-07
(PID.TID 0000.0001)  cg2d: iter=    74 ; resid.=  8.83714763470280E-08
(PID.TID 0000.0001)  cg2d: iter=    75 ; resid.=  7.18234599313315E-08
(PID.TID 0000.0001)  cg2d: iter=    76 ; resid.=  5.99318222269561E-08
(PID.TID 0000.0001)  cg2d: iter=    77 ; resid.=  5.27839796143789E-08
(PID.TID 0000.0001)  cg2d: iter=    78 ; resid.=  4.65755615951523E-08
(PID.TID 0000.0001)  cg2d: iter=    79 ; resid.=  3.88056377733054E-08
(PID.TID 0000.0001)  cg2d: iter=    80 ; resid.=  3.16213792236380E-08
(PID.TID 0000.0001)  cg2d: iter=    81 ; resid.=  2.65643264592457E-08
(PID.TID 0000.0001)  cg2d: iter=    82 ; resid.=  2.19996098840543E-08
(PID.TID 0000.0001)  cg2d: iter=    83 ; resid.=  1.74289416508949E-08
(PID.TID 0000.0001)  cg2d: iter=    84 ; resid.=  1.32048915806814E-08
(PID.TID 0000.0001)  cg2d: iter=    85 ; resid.=  1.00960578571408E-08
(PID.TID 0000.0001)  cg2d: iter=    86 ; resid.=  7.78913095564257E-09
(PID.TID 0000.0001)  cg2d: iter=    87 ; resid.=  6.50288620650321E-09
(PID.TID 0000.0001)  cg2d: iter=    88 ; resid.=  4.70491971848824E-09
(PID.TID 0000.0001)  cg2d: iter=    89 ; resid.=  3.46392089393373E-09
(PID.TID 0000.0001)  cg2d: iter=    90 ; resid.=  2.94990754697819E-09
(PID.TID 0000.0001)  cg2d: iter=    91 ; resid.=  2.73386540961844E-09
(PID.TID 0000.0001)  cg2d: iter=    92 ; resid.=  2.45105344729013E-09
(PID.TID 0000.0001)  cg2d: iter=    93 ; resid.=  1.99163029737348E-09
(PID.TID 0000.0001)  cg2d: iter=    94 ; resid.=  1.55357398770821E-09
(PID.TID 0000.0001)  cg2d: iter=    95 ; resid.=  1.25151109910642E-09
(PID.TID 0000.0001)  cg2d: iter=    96 ; resid.=  1.05641275953823E-09
(PID.TID 0000.0001)  cg2d: iter=    97 ; resid.=  9.07968509014352E-10
(PID.TID 0000.0001)  cg2d: iter=    98 ; resid.=  7.30089187059415E-10
(PID.TID 0000.0001)  cg2d: iter=    99 ; resid.=  6.08671743565915E-10
(PID.TID 0000.0001)  cg2d: iter=   100 ; resid.=  5.17622404310236E-10
(PID.TID 0000.0001)  cg2d: iter=   101 ; resid.=  4.39927746287636E-10
(PID.TID 0000.0001)  cg2d: iter=   102 ; resid.=  3.87589825015478E-10
(PID.TID 0000.0001)  cg2d: iter=   103 ; resid.=  3.24778454056254E-10
(PID.TID 0000.0001)  cg2d: iter=   104 ; resid.=  2.51711519902200E-10
(PID.TID 0000.0001)  cg2d: iter=   105 ; resid.=  1.91640480027470E-10
(PID.TID 0000.0001)  cg2d: iter=   106 ; resid.=  1.51115977782819E-10
(PID.TID 0000.0001)  cg2d: iter=   107 ; resid.=  1.13018376643583E-10
(PID.TID 0000.0001)  cg2d: iter=   108 ; resid.=  8.00496314211481E-11
(PID.TID 0000.0001)  cg2d: iter=   109 ; resid.=  5.70997995970241E-11
(PID.TID 0000.0001)  cg2d: iter=   110 ; resid.=  4.30495875062184E-11
(PID.TID 0000.0001)  cg2d: iter=   111 ; resid.=  3.28699430374967E-11
(PID.TID 0000.0001)  cg2d: iter=   112 ; resid.=  2.62459156245679E-11
(PID.TID 0000.0001)  cg2d: iter=   113 ; resid.=  1.96302056599068E-11
(PID.TID 0000.0001)  cg2d: iter=   114 ; resid.=  1.33237393136272E-11
(PID.TID 0000.0001)  cg2d: iter=   115 ; resid.=  1.06886702727712E-11
(PID.TID 0000.0001)  cg2d: iter=   116 ; resid.=  9.01504931560006E-12
(PID.TID 0000.0001)  cg2d: iter=   117 ; resid.=  7.04113386757540E-12
(PID.TID 0000.0001)  cg2d: iter=   118 ; resid.=  5.12231635597877E-12
(PID.TID 0000.0001)  cg2d: iter=   119 ; resid.=  3.79684165840783E-12
(PID.TID 0000.0001)  cg2d: iter=   120 ; resid.=  2.85216375611776E-12
(PID.TID 0000.0001)  cg2d: iter=   121 ; resid.=  2.20287767136268E-12
(PID.TID 0000.0001)  cg2d: iter=   122 ; resid.=  1.70137788098289E-12
(PID.TID 0000.0001)  cg2d: iter=   123 ; resid.=  1.39403841485073E-12
(PID.TID 0000.0001)  cg2d: iter=   124 ; resid.=  1.19114697968976E-12
(PID.TID 0000.0001)  cg2d: iter=   125 ; resid.=  9.94805123693126E-13
(PID.TID 0000.0001)  cg2d: iter=   126 ; resid.=  7.62008675131819E-13
(PID.TID 0000.0001)  cg2d: iter=   127 ; resid.=  5.20006275003192E-13
(PID.TID 0000.0001)  cg2d: iter=   128 ; resid.=  3.45091308485359E-13
(PID.TID 0000.0001)  cg2d: iter=   129 ; resid.=  2.27913743938503E-13
(PID.TID 0000.0001)  cg2d: iter=   130 ; resid.=  1.61704472170288E-13
(PID.TID 0000.0001)  cg2d: iter=   131 ; resid.=  1.16215052056287E-13
(PID.TID 0000.0001)  cg2d: iter=   132 ; resid.=  8.22349500037416E-14
DEBUG_STATS_RL:    cg2d_x (SOLVE_FOR_PRESSURE)  min= -1.52346248843844E+01
DEBUG_STATS_RL:    cg2d_x (SOLVE_FOR_PRESSURE)  max=  8.61665920790725E+00
DEBUG_STATS_RL:    cg2d_x (SOLVE_FOR_PRESSURE) mean= -1.62005603252240E+00
DEBUG_STATS_RL:    cg2d_x (SOLVE_FOR_PRESSURE) S.D.=  6.38934368826295E+00
(PID.TID 0000.0001)      cg2d_init_res =   5.59647979684003E-01
(PID.TID 0000.0001)      cg2d_iters(min,last) =      -1     132
(PID.TID 0000.0001)      cg2d_last_res =   8.22349500037416E-14
(PID.TID 0000.0001) // =======================================================
(PID.TID 0000.0001) // Begin MONITOR dynamic field statistics
(PID.TID 0000.0001) // =======================================================
(PID.TID 0000.0001) %MON time_tsnumber                =                    17
(PID.TID 0000.0001) %MON time_secondsf                =   1.4688000000000E+06
(PID.TID 0000.0001) %MON dynstat_eta_max              =   8.7835465931776E-01
(PID.TID 0000.0001) %MON dynstat_eta_min              =  -1.5529688974907E+00
(PID.TID 0000.0001) %MON dynstat_eta_mean             =  -1.2119575532811E-03
(PID.TID 0000.0001) %MON dynstat_eta_sd               =   5.7888963161972E-01
(PID.TID 0000.0001) %MON dynstat_eta_del2             =   1.7377903567470E-03
(PID.TID 0000.0001) %MON dynstat_uvel_max             =   1.8792591114416E-01
(PID.TID 0000.0001) %MON dynstat_uvel_min             =  -1.1642683125050E-01
(PID.TID 0000.0001) %MON dynstat_uvel_mean            =   9.2462231415704E-04
(PID.TID 0000.0001) %MON dynstat_uvel_sd              =   1.5572209322591E-02
(PID.TID 0000.0001) %MON dynstat_uvel_del2            =   9.5720941747887E-05
(PID.TID 0000.0001) %MON dynstat_vvel_max             =   1.2582962124181E-01
(PID.TID 0000.0001) %MON dynstat_vvel_min             =  -1.0877443326037E-01
(PID.TID 0000.0001) %MON dynstat_vvel_mean            =   9.2073753125586E-05
(PID.TID 0000.0001) %MON dynstat_vvel_sd              =   8.9402514645566E-03
(PID.TID 0000.0001) %MON dynstat_vvel_del2            =   8.6095462595275E-05
(PID.TID 0000.0001) %MON dynstat_wvel_max             =   1.5001280486409E-04
(PID.TID 0000.0001) %MON dynstat_wvel_min             =  -1.8903872941766E-04
(PID.TID 0000.0001) %MON dynstat_wvel_mean            =  -9.5641234192533E-23
(PID.TID 0000.0001) %MON dynstat_wvel_sd              =   1.7481716847134E-05
(PID.TID 0000.0001) %MON dynstat_wvel_del2            =   2.0244260029340E-07
(PID.TID 0000.0001) %MON dynstat_theta_max            =   2.9840509727160E+01
(PID.TID 0000.0001) %MON dynstat_theta_min            =  -2.0202501354264E+00
(PID.TID 0000.0001) %MON dynstat_theta_mean           =   3.6200628512883E+00
(PID.TID 0000.0001) %MON dynstat_theta_sd             =   4.4154423917126E+00
(PID.TID 0000.0001) %MON dynstat_theta_del2           =   4.8725414987258E-03
(PID.TID 0000.0001) %MON dynstat_salt_max             =   3.7439316606591E+01
(PID.TID 0000.0001) %MON dynstat_salt_min             =   2.9764844887321E+01
(PID.TID 0000.0001) %MON dynstat_salt_mean            =   3.4717982414343E+01
(PID.TID 0000.0001) %MON dynstat_salt_sd              =   2.9620932245089E-01
(PID.TID 0000.0001) %MON dynstat_salt_del2            =   1.0119112236593E-03
(PID.TID 0000.0001) %MON dynstat_sst_max              =   2.9840509727160E+01
(PID.TID 0000.0001) %MON dynstat_sst_min              =  -2.0202501354264E+00
(PID.TID 0000.0001) %MON dynstat_sst_mean             =   1.8673938439816E+01
(PID.TID 0000.0001) %MON dynstat_sst_sd               =   9.0525113678222E+00
(PID.TID 0000.0001) %MON dynstat_sst_del2             =   2.6284564973741E-02
(PID.TID 0000.0001) %MON dynstat_sss_max              =   3.7429310169315E+01
(PID.TID 0000.0001) %MON dynstat_sss_min              =   2.9764844887321E+01
(PID.TID 0000.0001) %MON dynstat_sss_mean             =   3.4854477273298E+01
(PID.TID 0000.0001) %MON dynstat_sss_sd               =   9.7053196726191E-01
(PID.TID 0000.0001) %MON dynstat_sss_del2             =   7.9959933339928E-03
(PID.TID 0000.0001) %MON forcing_qnet_max             =   4.3829453023275E+02
(PID.TID 0000.0001) %MON forcing_qnet_min             =  -1.8026952260335E+02
(PID.TID 0000.0001) %MON forcing_qnet_mean            =  -1.6427616833641E+01
(PID.TID 0000.0001) %MON forcing_qnet_sd              =   1.0879423939526E+02
(PID.TID 0000.0001) %MON forcing_qnet_del2            =   1.0203667350774E+00
(PID.TID 0000.0001) %MON forcing_qsw_max              =   0.0000000000000E+00
(PID.TID 0000.0001) %MON forcing_qsw_min              =   0.0000000000000E+00
(PID.TID 0000.0001) %MON forcing_qsw_mean             =   0.0000000000000E+00
(PID.TID 0000.0001) %MON forcing_qsw_sd               =   0.0000000000000E+00
(PID.TID 0000.0001) %MON forcing_qsw_del2             =   0.0000000000000E+00
(PID.TID 0000.0001) %MON forcing_empmr_max            =   8.1860149236945E-05
(PID.TID 0000.0001) %MON forcing_empmr_min            =  -7.6235600469469E-05
(PID.TID 0000.0001) %MON forcing_empmr_mean           =   9.2361945937058E-07
(PID.TID 0000.0001) %MON forcing_empmr_sd             =   2.8746828928173E-05
(PID.TID 0000.0001) %MON forcing_empmr_del2           =   3.6633793428934E-07
(PID.TID 0000.0001) %MON forcing_fu_max               =   2.7858280539513E-01
(PID.TID 0000.0001) %MON forcing_fu_min               =  -1.6918717175722E-01
(PID.TID 0000.0001) %MON forcing_fu_mean              =   1.6056035368035E-02
(PID.TID 0000.0001) %MON forcing_fu_sd                =   9.0876058187851E-02
(PID.TID 0000.0001) %MON forcing_fu_del2              =   7.1713030175372E-04
(PID.TID 0000.0001) %MON forcing_fv_max               =   2.2991287360589E-01
(PID.TID 0000.0001) %MON forcing_fv_min               =  -1.7714560031891E-01
(PID.TID 0000.0001) %MON forcing_fv_mean              =  -5.3241586462203E-03
(PID.TID 0000.0001) %MON forcing_fv_sd                =   4.7928888739260E-02
(PID.TID 0000.0001) %MON forcing_fv_del2              =   4.9390753513588E-04
(PID.TID 0000.0001) %MON trAdv_CFL_u_max              =   5.1849394489863E-02
(PID.TID 0000.0001) %MON trAdv_CFL_v_max              =   2.4086113173868E-02
(PID.TID 0000.0001) %MON trAdv_CFL_w_max              =   6.4700784194766E-02
(PID.TID 0000.0001) %MON advcfl_uvel_max              =   5.0199849968484E-02
(PID.TID 0000.0001) %MON advcfl_vvel_max              =   2.4446677342783E-02
(PID.TID 0000.0001) %MON advcfl_wvel_max              =   5.7448408805651E-02
(PID.TID 0000.0001) %MON advcfl_W_hf_max              =   6.3432618056240E-02
(PID.TID 0000.0001) %MON pe_b_mean                    =   4.2881961826367E-04
(PID.TID 0000.0001) %MON ke_max                       =   1.8392113826349E-02
(PID.TID 0000.0001) %MON ke_mean                      =   1.4644399716841E-04
(PID.TID 0000.0001) %MON ke_vol                       =   1.3226782436723E+18
(PID.TID 0000.0001) %MON vort_r_min                   =  -3.6905986974457E-07
(PID.TID 0000.0001) %MON vort_r_max                   =   3.9651555710591E-07
(PID.TID 0000.0001) %MON vort_a_mean                  =  -2.5274806955776E-05
(PID.TID 0000.0001) %MON vort_a_sd                    =   7.3604449878843E-05
(PID.TID 0000.0001) %MON vort_p_mean                  =  -3.1845655242972E-05
(PID.TID 0000.0001) %MON vort_p_sd                    =   1.3162387559247E-04
(PID.TID 0000.0001) %MON surfExpan_theta_mean         =   4.2168541705489E-07
(PID.TID 0000.0001) %MON surfExpan_salt_mean          =   3.3855299228404E-09
(PID.TID 0000.0001) // =======================================================
(PID.TID 0000.0001) // End MONITOR dynamic field statistics
(PID.TID 0000.0001) // =======================================================
 EXTERNAL_FIELDS_LOAD,        17 : iP,iLd,i0,i1=    1    2    1    2 ; Wght=  0.9333333333  0.0666666667
 EXTERNAL_FIELDS_LOAD: (fu0,1),fu,fv= -3.5633E-02 -1.4435E-02 -3.4220E-02 -5.4615E-02
 EXTERNAL_FIELDS_LOAD: SST,SSS,Q,E-P=  8.5907E-01  3.4695E+01  2.6408E+02  1.1419E-05
DEBUG_STATS_RL:          Uvel (THERMODYNAMICS)  min= -1.16426831250503E-01
DEBUG_STATS_RL:          Uvel (THERMODYNAMICS)  max=  1.87925911144159E-01
DEBUG_STATS_RL:          Uvel (THERMODYNAMICS) mean=  6.46344367255582E-03
DEBUG_STATS_RL:          Uvel (THERMODYNAMICS) S.D.=  2.56732215714565E-02
DEBUG_STATS_RL:          Vvel (THERMODYNAMICS)  min= -1.08774433260367E-01
DEBUG_STATS_RL:          Vvel (THERMODYNAMICS)  max=  1.25829621241811E-01
DEBUG_STATS_RL:          Vvel (THERMODYNAMICS) mean=  1.18117410523788E-03
DEBUG_STATS_RL:          Vvel (THERMODYNAMICS) S.D.=  1.48260277559683E-02
DEBUG_STATS_RL:          Wvel (THERMODYNAMICS)  min= -1.89038729417661E-04
DEBUG_STATS_RL:          Wvel (THERMODYNAMICS)  max=  1.50012804864086E-04
DEBUG_STATS_RL:          Wvel (THERMODYNAMICS) mean=  1.71200516693807E-07
DEBUG_STATS_RL:          Wvel (THERMODYNAMICS) S.D.=  1.55557173191357E-05
DEBUG_STATS_RL:         Theta (THERMODYNAMICS)  min= -2.01947719077078E+00
DEBUG_STATS_RL:         Theta (THERMODYNAMICS)  max=  2.98435638149323E+01
DEBUG_STATS_RL:         Theta (THERMODYNAMICS) mean=  3.20907461201535E+00
DEBUG_STATS_RL:         Theta (THERMODYNAMICS) S.D.=  5.85652808425353E+00
DEBUG_STATS_RL:          Salt (THERMODYNAMICS)  min= -5.20417042793042E-18
DEBUG_STATS_RL:          Salt (THERMODYNAMICS)  max=  3.74401000961138E+01
DEBUG_STATS_RL:          Salt (THERMODYNAMICS) mean=  1.88452174376463E+01
DEBUG_STATS_RL:          Salt (THERMODYNAMICS) S.D.=  1.73006948652451E+01
DEBUG_STATS_RL:         GtNm1 (THERMODYNAMICS)  min= -3.23366085529825E-06
DEBUG_STATS_RL:         GtNm1 (THERMODYNAMICS)  max=  2.52791320546743E-06
DEBUG_STATS_RL:         GtNm1 (THERMODYNAMICS) mean=  6.71622421393115E-09
DEBUG_STATS_RL:         GtNm1 (THERMODYNAMICS) S.D.=  2.34160049315016E-07
DEBUG_STATS_RL:         GsNm1 (THERMODYNAMICS)  min= -5.57308840206537E-07
DEBUG_STATS_RL:         GsNm1 (THERMODYNAMICS)  max=  3.95951237487595E-07
DEBUG_STATS_RL:         GsNm1 (THERMODYNAMICS) mean= -4.21411390657854E-11
DEBUG_STATS_RL:         GsNm1 (THERMODYNAMICS) S.D.=  1.99825743829961E-08
DEBUG_STATS_RL:                EtaN (DYNAMICS)  min= -1.55296889749073E+00
DEBUG_STATS_RL:                EtaN (DYNAMICS)  max=  8.78354659317757E-01
DEBUG_STATS_RL:                EtaN (DYNAMICS) mean= -1.65143326454881E-01
DEBUG_STATS_RL:                EtaN (DYNAMICS) S.D.=  6.51309244471251E-01
DEBUG_STATS_RL:                Uvel (DYNAMICS)  min= -1.16426831250503E-01
DEBUG_STATS_RL:                Uvel (DYNAMICS)  max=  1.87925911144159E-01
DEBUG_STATS_RL:                Uvel (DYNAMICS) mean=  6.46344367255582E-03
DEBUG_STATS_RL:                Uvel (DYNAMICS) S.D.=  2.56732215714565E-02
DEBUG_STATS_RL:                Vvel (DYNAMICS)  min= -1.08774433260367E-01
DEBUG_STATS_RL:                Vvel (DYNAMICS)  max=  1.25829621241811E-01
DEBUG_STATS_RL:                Vvel (DYNAMICS) mean=  1.18117410523788E-03
DEBUG_STATS_RL:                Vvel (DYNAMICS) S.D.=  1.48260277559683E-02
DEBUG_STATS_RL:                Wvel (DYNAMICS)  min= -1.89038729417661E-04
DEBUG_STATS_RL:                Wvel (DYNAMICS)  max=  1.50012804864086E-04
DEBUG_STATS_RL:                Wvel (DYNAMICS) mean=  1.71200516693807E-07
DEBUG_STATS_RL:                Wvel (DYNAMICS) S.D.=  1.55557173191357E-05
DEBUG_STATS_RL:               Theta (DYNAMICS)  min= -2.01947719077078E+00
DEBUG_STATS_RL:               Theta (DYNAMICS)  max=  2.98435638149323E+01
DEBUG_STATS_RL:               Theta (DYNAMICS) mean=  3.20907461201535E+00
DEBUG_STATS_RL:               Theta (DYNAMICS) S.D.=  5.85652808425353E+00
DEBUG_STATS_RL:                Salt (DYNAMICS)  min= -5.20417042793042E-18
DEBUG_STATS_RL:                Salt (DYNAMICS)  max=  3.74401000961138E+01
DEBUG_STATS_RL:                Salt (DYNAMICS) mean=  1.88452174376463E+01
DEBUG_STATS_RL:                Salt (DYNAMICS) S.D.=  1.73006948652451E+01
DEBUG_STATS_RL:                  Gu (DYNAMICS)  min= -1.23635059566166E-01
DEBUG_STATS_RL:                  Gu (DYNAMICS)  max=  1.90176729415573E-01
DEBUG_STATS_RL:                  Gu (DYNAMICS) mean=  6.16289326094365E-03
DEBUG_STATS_RL:                  Gu (DYNAMICS) S.D.=  2.54109151856965E-02
DEBUG_STATS_RL:                  Gv (DYNAMICS)  min= -1.05381566036045E-01
DEBUG_STATS_RL:                  Gv (DYNAMICS)  max=  1.40956108653133E-01
DEBUG_STATS_RL:                  Gv (DYNAMICS) mean=  3.59088744474659E-03
DEBUG_STATS_RL:                  Gv (DYNAMICS) S.D.=  1.67801369037019E-02
DEBUG_STATS_RL:               GuNm1 (DYNAMICS)  min= -7.11148416569403E-06
DEBUG_STATS_RL:               GuNm1 (DYNAMICS)  max=  7.33369979581189E-06
DEBUG_STATS_RL:               GuNm1 (DYNAMICS) mean= -1.53033339023923E-08
DEBUG_STATS_RL:               GuNm1 (DYNAMICS) S.D.=  1.11402674617570E-06
DEBUG_STATS_RL:               GvNm1 (DYNAMICS)  min= -8.81554922697368E-06
DEBUG_STATS_RL:               GvNm1 (DYNAMICS)  max=  1.69319232550236E-05
DEBUG_STATS_RL:               GvNm1 (DYNAMICS) mean=  7.72669903121978E-07
DEBUG_STATS_RL:               GvNm1 (DYNAMICS) S.D.=  2.56899320225574E-06
DEBUG_STATS_RL:               GtNm1 (DYNAMICS)  min= -3.23366085529825E-06
DEBUG_STATS_RL:               GtNm1 (DYNAMICS)  max=  2.52791320546743E-06
DEBUG_STATS_RL:               GtNm1 (DYNAMICS) mean=  6.71622421393115E-09
DEBUG_STATS_RL:               GtNm1 (DYNAMICS) S.D.=  2.34160049315016E-07
DEBUG_STATS_RL:               GsNm1 (DYNAMICS)  min= -5.57308840206537E-07
DEBUG_STATS_RL:               GsNm1 (DYNAMICS)  max=  3.95951237487595E-07
DEBUG_STATS_RL:               GsNm1 (DYNAMICS) mean= -4.21411390657854E-11
DEBUG_STATS_RL:               GsNm1 (DYNAMICS) S.D.=  1.99825743829961E-08
DEBUG_STATS_RL:    cg2d_b (SOLVE_FOR_PRESSURE)  min= -1.92569888631482E+04
DEBUG_STATS_RL:    cg2d_b (SOLVE_FOR_PRESSURE)  max=  1.31197085625876E+04
DEBUG_STATS_RL:    cg2d_b (SOLVE_FOR_PRESSURE) mean=  1.23552454698384E+00
DEBUG_STATS_RL:    cg2d_b (SOLVE_FOR_PRESSURE) S.D.=  3.20233346315594E+03
 cg2d: Sum(rhs),rhsMax =   1.48529936149032E-01  1.26485058768869E+00
(PID.TID 0000.0001)  cg2d: iter=     1 ; resid.=  1.63056206736597E-01
(PID.TID 0000.0001)  cg2d: iter=     2 ; resid.=  8.97398557988704E-02
(PID.TID 0000.0001)  cg2d: iter=     3 ; resid.=  7.88341997621937E-02
(PID.TID 0000.0001)  cg2d: iter=     4 ; resid.=  6.85410303080963E-02
(PID.TID 0000.0001)  cg2d: iter=     5 ; resid.=  6.14888471506527E-02
(PID.TID 0000.0001)  cg2d: iter=     6 ; resid.=  5.23801181903325E-02
(PID.TID 0000.0001)  cg2d: iter=     7 ; resid.=  4.99114738114706E-02
(PID.TID 0000.0001)  cg2d: iter=     8 ; resid.=  4.12327681548099E-02
(PID.TID 0000.0001)  cg2d: iter=     9 ; resid.=  3.49079683792983E-02
(PID.TID 0000.0001)  cg2d: iter=    10 ; resid.=  2.87855367969306E-02
(PID.TID 0000.0001)  cg2d: iter=    11 ; resid.=  2.56917430086631E-02
(PID.TID 0000.0001)  cg2d: iter=    12 ; resid.=  2.23209581028624E-02
(PID.TID 0000.0001)  cg2d: iter=    13 ; resid.=  1.84696008076650E-02
(PID.TID 0000.0001)  cg2d: iter=    14 ; resid.=  1.46276420715635E-02
(PID.TID 0000.0001)  cg2d: iter=    15 ; resid.=  1.26637027895991E-02
(PID.TID 0000.0001)  cg2d: iter=    16 ; resid.=  1.18473259764712E-02
(PID.TID 0000.0001)  cg2d: iter=    17 ; resid.=  1.14373888942399E-02
(PID.TID 0000.0001)  cg2d: iter=    18 ; resid.=  9.33507001548043E-03
(PID.TID 0000.0001)  cg2d: iter=    19 ; resid.=  7.15466308786772E-03
(PID.TID 0000.0001)  cg2d: iter=    20 ; resid.=  5.52528665172548E-03
(PID.TID 0000.0001)  cg2d: iter=    21 ; resid.=  4.40709866420173E-03
(PID.TID 0000.0001)  cg2d: iter=    22 ; resid.=  3.51863933279025E-03
(PID.TID 0000.0001)  cg2d: iter=    23 ; resid.=  2.72420155804909E-03
(PID.TID 0000.0001)  cg2d: iter=    24 ; resid.=  2.39960874999176E-03
(PID.TID 0000.0001)  cg2d: iter=    25 ; resid.=  2.17489119118855E-03
(PID.TID 0000.0001)  cg2d: iter=    26 ; resid.=  1.92324563837466E-03
(PID.TID 0000.0001)  cg2d: iter=    27 ; resid.=  1.61127704048610E-03
(PID.TID 0000.0001)  cg2d: iter=    28 ; resid.=  1.42809838942177E-03
(PID.TID 0000.0001)  cg2d: iter=    29 ; resid.=  1.16061578675474E-03
(PID.TID 0000.0001)  cg2d: iter=    30 ; resid.=  8.81960588481742E-04
(PID.TID 0000.0001)  cg2d: iter=    31 ; resid.=  7.23397501373316E-04
(PID.TID 0000.0001)  cg2d: iter=    32 ; resid.=  5.97583051025858E-04
(PID.TID 0000.0001)  cg2d: iter=    33 ; resid.=  4.73297166213937E-04
(PID.TID 0000.0001)  cg2d: iter=    34 ; resid.=  3.70411089468061E-04
(PID.TID 0000.0001)  cg2d: iter=    35 ; resid.=  2.92710818715497E-04
(PID.TID 0000.0001)  cg2d: iter=    36 ; resid.=  2.27266620987782E-04
(PID.TID 0000.0001)  cg2d: iter=    37 ; resid.=  1.90730533906310E-04
(PID.TID 0000.0001)  cg2d: iter=    38 ; resid.=  1.88892800764343E-04
(PID.TID 0000.0001)  cg2d: iter=    39 ; resid.=  1.68304360383442E-04
(PID.TID 0000.0001)  cg2d: iter=    40 ; resid.=  1.45294918171127E-04
(PID.TID 0000.0001)  cg2d: iter=    41 ; resid.=  1.17419368816691E-04
(PID.TID 0000.0001)  cg2d: iter=    42 ; resid.=  1.00238673431458E-04
(PID.TID 0000.0001)  cg2d: iter=    43 ; resid.=  8.11669747922015E-05
(PID.TID 0000.0001)  cg2d: iter=    44 ; resid.=  6.57346404745434E-05
(PID.TID 0000.0001)  cg2d: iter=    45 ; resid.=  5.63688912440736E-05
(PID.TID 0000.0001)  cg2d: iter=    46 ; resid.=  4.90477441918578E-05
(PID.TID 0000.0001)  cg2d: iter=    47 ; resid.=  3.97998596723610E-05
(PID.TID 0000.0001)  cg2d: iter=    48 ; resid.=  3.19798492148134E-05
(PID.TID 0000.0001)  cg2d: iter=    49 ; resid.=  2.57716427394289E-05
(PID.TID 0000.0001)  cg2d: iter=    50 ; resid.=  2.27419747572522E-05
(PID.TID 0000.0001)  cg2d: iter=    51 ; resid.=  1.89613845469465E-05
(PID.TID 0000.0001)  cg2d: iter=    52 ; resid.=  1.45306027527034E-05
(PID.TID 0000.0001)  cg2d: iter=    53 ; resid.=  1.07351604190106E-05
(PID.TID 0000.0001)  cg2d: iter=    54 ; resid.=  8.44509260418045E-06
(PID.TID 0000.0001)  cg2d: iter=    55 ; resid.=  7.31873930732105E-06
(PID.TID 0000.0001)  cg2d: iter=    56 ; resid.=  6.26859308439771E-06
(PID.TID 0000.0001)  cg2d: iter=    57 ; resid.=  5.27189948682611E-06
(PID.TID 0000.0001)  cg2d: iter=    58 ; resid.=  4.48044820568877E-06
(PID.TID 0000.0001)  cg2d: iter=    59 ; resid.=  3.67353647577431E-06
(PID.TID 0000.0001)  cg2d: iter=    60 ; resid.=  2.80759010507704E-06
(PID.TID 0000.0001)  cg2d: iter=    61 ; resid.=  2.27474120330494E-06
(PID.TID 0000.0001)  cg2d: iter=    62 ; resid.=  1.92656841972149E-06
(PID.TID 0000.0001)  cg2d: iter=    63 ; resid.=  1.58176578531924E-06
(PID.TID 0000.0001)  cg2d: iter=    64 ; resid.=  1.22389967288090E-06
(PID.TID 0000.0001)  cg2d: iter=    65 ; resid.=  9.56423267321910E-07
(PID.TID 0000.0001)  cg2d: iter=    66 ; resid.=  7.07016399365162E-07
(PID.TID 0000.0001)  cg2d: iter=    67 ; resid.=  5.44178961883613E-07
(PID.TID 0000.0001)  cg2d: iter=    68 ; resid.=  4.20638397926736E-07
(PID.TID 0000.0001)  cg2d: iter=    69 ; resid.=  3.20295309737019E-07
(PID.TID 0000.0001)  cg2d: iter=    70 ; resid.=  2.37173128939631E-07
(PID.TID 0000.0001)  cg2d: iter=    71 ; resid.=  1.72164083271853E-07
(PID.TID 0000.0001)  cg2d: iter=    72 ; resid.=  1.28839777074739E-07
(PID.TID 0000.0001)  cg2d: iter=    73 ; resid.=  1.05093506449713E-07
(PID.TID 0000.0001)  cg2d: iter=    74 ; resid.=  8.81164107374804E-08
(PID.TID 0000.0001)  cg2d: iter=    75 ; resid.=  7.45613209113329E-08
(PID.TID 0000.0001)  cg2d: iter=    76 ; resid.=  6.55349083677840E-08
(PID.TID 0000.0001)  cg2d: iter=    77 ; resid.=  5.95033268966134E-08
(PID.TID 0000.0001)  cg2d: iter=    78 ; resid.=  5.23459566780261E-08
(PID.TID 0000.0001)  cg2d: iter=    79 ; resid.=  4.48279852971525E-08
(PID.TID 0000.0001)  cg2d: iter=    80 ; resid.=  3.82802572206135E-08
(PID.TID 0000.0001)  cg2d: iter=    81 ; resid.=  3.19874434215841E-08
(PID.TID 0000.0001)  cg2d: iter=    82 ; resid.=  2.55512548523854E-08
(PID.TID 0000.0001)  cg2d: iter=    83 ; resid.=  2.00528835093037E-08
(PID.TID 0000.0001)  cg2d: iter=    84 ; resid.=  1.56668380710158E-08
(PID.TID 0000.0001)  cg2d: iter=    85 ; resid.=  1.22545920923010E-08
(PID.TID 0000.0001)  cg2d: iter=    86 ; resid.=  9.22138704676057E-09
(PID.TID 0000.0001)  cg2d: iter=    87 ; resid.=  7.51217295545121E-09
(PID.TID 0000.0001)  cg2d: iter=    88 ; resid.=  5.39221914112482E-09
(PID.TID 0000.0001)  cg2d: iter=    89 ; resid.=  4.03232354964267E-09
(PID.TID 0000.0001)  cg2d: iter=    90 ; resid.=  3.44064211457832E-09
(PID.TID 0000.0001)  cg2d: iter=    91 ; resid.=  3.15353885905712E-09
(PID.TID 0000.0001)  cg2d: iter=    92 ; resid.=  2.81105705559331E-09
(PID.TID 0000.0001)  cg2d: iter=    93 ; resid.=  2.23234969082404E-09
(PID.TID 0000.0001)  cg2d: iter=    94 ; resid.=  1.72024251191353E-09
(PID.TID 0000.0001)  cg2d: iter=    95 ; resid.=  1.37378428920144E-09
(PID.TID 0000.0001)  cg2d: iter=    96 ; resid.=  1.13714458342990E-09
(PID.TID 0000.0001)  cg2d: iter=    97 ; resid.=  9.46799316405081E-10
(PID.TID 0000.0001)  cg2d: iter=    98 ; resid.=  7.35277502335722E-10
(PID.TID 0000.0001)  cg2d: iter=    99 ; resid.=  5.88495616270920E-10
(PID.TID 0000.0001)  cg2d: iter=   100 ; resid.=  4.82935815829926E-10
(PID.TID 0000.0001)  cg2d: iter=   101 ; resid.=  4.04454007332485E-10
(PID.TID 0000.0001)  cg2d: iter=   102 ; resid.=  3.53173207037058E-10
(PID.TID 0000.0001)  cg2d: iter=   103 ; resid.=  2.95857727654990E-10
(PID.TID 0000.0001)  cg2d: iter=   104 ; resid.=  2.31970366586458E-10
(PID.TID 0000.0001)  cg2d: iter=   105 ; resid.=  1.79918508116430E-10
(PID.TID 0000.0001)  cg2d: iter=   106 ; resid.=  1.46646510192599E-10
(PID.TID 0000.0001)  cg2d: iter=   107 ; resid.=  1.13717000475427E-10
(PID.TID 0000.0001)  cg2d: iter=   108 ; resid.=  8.26209395692754E-11
(PID.TID 0000.0001)  cg2d: iter=   109 ; resid.=  6.02032889806911E-11
(PID.TID 0000.0001)  cg2d: iter=   110 ; resid.=  4.59210705297849E-11
(PID.TID 0000.0001)  cg2d: iter=   111 ; resid.=  3.54593804921504E-11
(PID.TID 0000.0001)  cg2d: iter=   112 ; resid.=  2.86709247566483E-11
(PID.TID 0000.0001)  cg2d: iter=   113 ; resid.=  2.17684586521450E-11
(PID.TID 0000.0001)  cg2d: iter=   114 ; resid.=  1.50544656839343E-11
(PID.TID 0000.0001)  cg2d: iter=   115 ; resid.=  1.21026266013051E-11
(PID.TID 0000.0001)  cg2d: iter=   116 ; resid.=  1.00797610519849E-11
(PID.TID 0000.0001)  cg2d: iter=   117 ; resid.=  7.96137961613293E-12
(PID.TID 0000.0001)  cg2d: iter=   118 ; resid.=  5.85363730017127E-12
(PID.TID 0000.0001)  cg2d: iter=   119 ; resid.=  4.31741546090183E-12
(PID.TID 0000.0001)  cg2d: iter=   120 ; resid.=  3.31487468274969E-12
(PID.TID 0000.0001)  cg2d: iter=   121 ; resid.=  2.57339794643111E-12
(PID.TID 0000.0001)  cg2d: iter=   122 ; resid.=  1.94449041394455E-12
(PID.TID 0000.0001)  cg2d: iter=   123 ; resid.=  1.55910834698497E-12
(PID.TID 0000.0001)  cg2d: iter=   124 ; resid.=  1.27819792680370E-12
(PID.TID 0000.0001)  cg2d: iter=   125 ; resid.=  1.04266162917554E-12
(PID.TID 0000.0001)  cg2d: iter=   126 ; resid.=  7.89622892769127E-13
(PID.TID 0000.0001)  cg2d: iter=   127 ; resid.=  5.33022915084835E-13
(PID.TID 0000.0001)  cg2d: iter=   128 ; resid.=  3.43208043876164E-13
(PID.TID 0000.0001)  cg2d: iter=   129 ; resid.=  2.25745843766395E-13
(PID.TID 0000.0001)  cg2d: iter=   130 ; resid.=  1.59700684615057E-13
(PID.TID 0000.0001)  cg2d: iter=   131 ; resid.=  1.14410418316048E-13
(PID.TID 0000.0001)  cg2d: iter=   132 ; resid.=  8.28843171955040E-14
DEBUG_STATS_RL:    cg2d_x (SOLVE_FOR_PRESSURE)  min= -1.55178232348631E+01
DEBUG_STATS_RL:    cg2d_x (SOLVE_FOR_PRESSURE)  max=  8.97952950114671E+00
DEBUG_STATS_RL:    cg2d_x (SOLVE_FOR_PRESSURE) mean= -1.63472998560826E+00
DEBUG_STATS_RL:    cg2d_x (SOLVE_FOR_PRESSURE) S.D.=  6.44227441138127E+00
(PID.TID 0000.0001)      cg2d_init_res =   5.35943015755823E-01
(PID.TID 0000.0001)      cg2d_iters(min,last) =      -1     132
(PID.TID 0000.0001)      cg2d_last_res =   8.28843171955040E-14
(PID.TID 0000.0001) // =======================================================
(PID.TID 0000.0001) // Begin MONITOR dynamic field statistics
(PID.TID 0000.0001) // =======================================================
(PID.TID 0000.0001) %MON time_tsnumber                =                    18
(PID.TID 0000.0001) %MON time_secondsf                =   1.5552000000000E+06
(PID.TID 0000.0001) %MON dynstat_eta_max              =   9.1534449552977E-01
(PID.TID 0000.0001) %MON dynstat_eta_min              =  -1.5818372308728E+00
(PID.TID 0000.0001) %MON dynstat_eta_mean             =  -1.2891166647912E-03
(PID.TID 0000.0001) %MON dynstat_eta_sd               =   5.8322382887429E-01
(PID.TID 0000.0001) %MON dynstat_eta_del2             =   1.7620828634663E-03
(PID.TID 0000.0001) %MON dynstat_uvel_max             =   1.8429650078417E-01
(PID.TID 0000.0001) %MON dynstat_uvel_min             =  -1.2338489679237E-01
(PID.TID 0000.0001) %MON dynstat_uvel_mean            =   1.0113082515091E-03
(PID.TID 0000.0001) %MON dynstat_uvel_sd              =   1.5301350278760E-02
(PID.TID 0000.0001) %MON dynstat_uvel_del2            =   9.5114410370452E-05
(PID.TID 0000.0001) %MON dynstat_vvel_max             =   1.2798508225540E-01
(PID.TID 0000.0001) %MON dynstat_vvel_min             =  -1.0918811218880E-01
(PID.TID 0000.0001) %MON dynstat_vvel_mean            =   8.6664090008065E-05
(PID.TID 0000.0001) %MON dynstat_vvel_sd              =   9.1489828273251E-03
(PID.TID 0000.0001) %MON dynstat_vvel_del2            =   8.6834505670094E-05
(PID.TID 0000.0001) %MON dynstat_wvel_max             =   1.4303020027076E-04
(PID.TID 0000.0001) %MON dynstat_wvel_min             =  -1.8386901355834E-04
(PID.TID 0000.0001) %MON dynstat_wvel_mean            =   4.4996508466263E-23
(PID.TID 0000.0001) %MON dynstat_wvel_sd              =   1.7758002987598E-05
(PID.TID 0000.0001) %MON dynstat_wvel_del2            =   2.0835105499225E-07
(PID.TID 0000.0001) %MON dynstat_theta_max            =   2.9843563814932E+01
(PID.TID 0000.0001) %MON dynstat_theta_min            =  -2.0194771907708E+00
(PID.TID 0000.0001) %MON dynstat_theta_mean           =   3.6201439292465E+00
(PID.TID 0000.0001) %MON dynstat_theta_sd             =   4.4155364917775E+00
(PID.TID 0000.0001) %MON dynstat_theta_del2           =   4.8625014124502E-03
(PID.TID 0000.0001) %MON dynstat_salt_max             =   3.7440100096114E+01
(PID.TID 0000.0001) %MON dynstat_salt_min             =   2.9768258688711E+01
(PID.TID 0000.0001) %MON dynstat_salt_mean            =   3.4717983054311E+01
(PID.TID 0000.0001) %MON dynstat_salt_sd              =   2.9621473894024E-01
(PID.TID 0000.0001) %MON dynstat_salt_del2            =   1.0119445652206E-03
(PID.TID 0000.0001) %MON dynstat_sst_max              =   2.9843563814932E+01
(PID.TID 0000.0001) %MON dynstat_sst_min              =  -2.0194771907708E+00
(PID.TID 0000.0001) %MON dynstat_sst_mean             =   1.8679820727126E+01
(PID.TID 0000.0001) %MON dynstat_sst_sd               =   9.0527081289155E+00
(PID.TID 0000.0001) %MON dynstat_sst_del2             =   2.6329891102631E-02
(PID.TID 0000.0001) %MON dynstat_sss_max              =   3.7429484570418E+01
(PID.TID 0000.0001) %MON dynstat_sss_min              =   2.9768258688711E+01
(PID.TID 0000.0001) %MON dynstat_sss_mean             =   3.4854077015035E+01
(PID.TID 0000.0001) %MON dynstat_sss_sd               =   9.7098948161863E-01
(PID.TID 0000.0001) %MON dynstat_sss_del2             =   7.9948002209916E-03
(PID.TID 0000.0001) %MON forcing_qnet_max             =   4.3497544352214E+02
(PID.TID 0000.0001) %MON forcing_qnet_min             =  -1.7954050801595E+02
(PID.TID 0000.0001) %MON forcing_qnet_mean            =  -1.6342707666237E+01
(PID.TID 0000.0001) %MON forcing_qnet_sd              =   1.0771909522073E+02
(PID.TID 0000.0001) %MON forcing_qnet_del2            =   1.0162694266512E+00
(PID.TID 0000.0001) %MON forcing_qsw_max              =   0.0000000000000E+00
(PID.TID 0000.0001) %MON forcing_qsw_min              =   0.0000000000000E+00
(PID.TID 0000.0001) %MON forcing_qsw_mean             =   0.0000000000000E+00
(PID.TID 0000.0001) %MON forcing_qsw_sd               =   0.0000000000000E+00
(PID.TID 0000.0001) %MON forcing_qsw_del2             =   0.0000000000000E+00
(PID.TID 0000.0001) %MON forcing_empmr_max            =   8.1546059504944E-05
(PID.TID 0000.0001) %MON forcing_empmr_min            =  -7.6315244731025E-05
(PID.TID 0000.0001) %MON forcing_empmr_mean           =   9.2430185663055E-07
(PID.TID 0000.0001) %MON forcing_empmr_sd             =   2.8695327910656E-05
(PID.TID 0000.0001) %MON forcing_empmr_del2           =   3.6515496809023E-07
(PID.TID 0000.0001) %MON forcing_fu_max               =   2.7838672995567E-01
(PID.TID 0000.0001) %MON forcing_fu_min               =  -1.6925448477268E-01
(PID.TID 0000.0001) %MON forcing_fu_mean              =   1.6110335583504E-02
(PID.TID 0000.0001) %MON forcing_fu_sd                =   9.0706822910468E-02
(PID.TID 0000.0001) %MON forcing_fu_del2              =   7.0993529997620E-04
(PID.TID 0000.0001) %MON forcing_fv_max               =   2.2670442660650E-01
(PID.TID 0000.0001) %MON forcing_fv_min               =  -1.7615430057049E-01
(PID.TID 0000.0001) %MON forcing_fv_mean              =  -5.3894195529355E-03
(PID.TID 0000.0001) %MON forcing_fv_sd                =   4.7622093142011E-02
(PID.TID 0000.0001) %MON forcing_fv_del2              =   4.8876213669100E-04
(PID.TID 0000.0001) %MON trAdv_CFL_u_max              =   5.0210045917048E-02
(PID.TID 0000.0001) %MON trAdv_CFL_v_max              =   2.4649511414377E-02
(PID.TID 0000.0001) %MON trAdv_CFL_w_max              =   6.3432618056240E-02
(PID.TID 0000.0001) %MON advcfl_uvel_max              =   4.8181529513914E-02
(PID.TID 0000.0001) %MON advcfl_vvel_max              =   2.4865448848285E-02
(PID.TID 0000.0001) %MON advcfl_wvel_max              =   5.5771498670604E-02
(PID.TID 0000.0001) %MON advcfl_W_hf_max              =   6.1581029782125E-02
(PID.TID 0000.0001) %MON pe_b_mean                    =   4.3526509497603E-04
(PID.TID 0000.0001) %MON ke_max                       =   1.8070515807389E-02
(PID.TID 0000.0001) %MON ke_mean                      =   1.4441576616714E-04
(PID.TID 0000.0001) %MON ke_vol                       =   1.3226782436723E+18
(PID.TID 0000.0001) %MON vort_r_min                   =  -3.4083535215199E-07
(PID.TID 0000.0001) %MON vort_r_max                   =   4.0088206007128E-07
(PID.TID 0000.0001) %MON vort_a_mean                  =  -2.5274806951195E-05
(PID.TID 0000.0001) %MON vort_a_sd                    =   7.3604464560863E-05
(PID.TID 0000.0001) %MON vort_p_mean                  =  -3.1845655237201E-05
(PID.TID 0000.0001) %MON vort_p_sd                    =   1.3162402869993E-04
(PID.TID 0000.0001) %MON surfExpan_theta_mean         =   3.5852830224352E-07
(PID.TID 0000.0001) %MON surfExpan_salt_mean          =   2.1161761883693E-08
(PID.TID 0000.0001) // =======================================================
(PID.TID 0000.0001) // End MONITOR dynamic field statistics
(PID.TID 0000.0001) // =======================================================
 EXTERNAL_FIELDS_LOAD,        18 : iP,iLd,i0,i1=    1    2    1    2 ; Wght=  0.9000000000  0.1000000000
 EXTERNAL_FIELDS_LOAD: (fu0,1),fu,fv= -3.5633E-02 -1.4435E-02 -3.3513E-02 -5.3295E-02
 EXTERNAL_FIELDS_LOAD: SST,SSS,Q,E-P=  8.0940E-01  3.4685E+01  2.6324E+02  1.1311E-05
DEBUG_STATS_RL:          Uvel (THERMODYNAMICS)  min= -1.23384896792366E-01
DEBUG_STATS_RL:          Uvel (THERMODYNAMICS)  max=  1.84296500784175E-01
DEBUG_STATS_RL:          Uvel (THERMODYNAMICS) mean=  6.23537106293533E-03
DEBUG_STATS_RL:          Uvel (THERMODYNAMICS) S.D.=  2.51329309117687E-02
DEBUG_STATS_RL:          Vvel (THERMODYNAMICS)  min= -1.09188112188800E-01
DEBUG_STATS_RL:          Vvel (THERMODYNAMICS)  max=  1.27985082255404E-01
DEBUG_STATS_RL:          Vvel (THERMODYNAMICS) mean=  1.47686186683627E-03
DEBUG_STATS_RL:          Vvel (THERMODYNAMICS) S.D.=  1.53457110957700E-02
DEBUG_STATS_RL:          Wvel (THERMODYNAMICS)  min= -1.83869013558336E-04
DEBUG_STATS_RL:          Wvel (THERMODYNAMICS)  max=  1.43030200270759E-04
DEBUG_STATS_RL:          Wvel (THERMODYNAMICS) mean=  2.69359902972827E-07
DEBUG_STATS_RL:          Wvel (THERMODYNAMICS) S.D.=  1.60058761091652E-05
DEBUG_STATS_RL:         Theta (THERMODYNAMICS)  min= -2.01874294559011E+00
DEBUG_STATS_RL:         Theta (THERMODYNAMICS)  max=  2.98476604235952E+01
DEBUG_STATS_RL:         Theta (THERMODYNAMICS) mean=  3.20919022574115E+00
DEBUG_STATS_RL:         Theta (THERMODYNAMICS) S.D.=  5.85689237424142E+00
DEBUG_STATS_RL:          Salt (THERMODYNAMICS)  min= -5.20417042793042E-18
DEBUG_STATS_RL:          Salt (THERMODYNAMICS)  max=  3.74409936480180E+01
DEBUG_STATS_RL:          Salt (THERMODYNAMICS) mean=  1.88452109385180E+01
DEBUG_STATS_RL:          Salt (THERMODYNAMICS) S.D.=  1.73006894923227E+01
DEBUG_STATS_RL:         GtNm1 (THERMODYNAMICS)  min= -3.26648736844228E-06
DEBUG_STATS_RL:         GtNm1 (THERMODYNAMICS)  max=  2.72620994015322E-06
DEBUG_STATS_RL:         GtNm1 (THERMODYNAMICS) mean=  4.40231880064111E-09
DEBUG_STATS_RL:         GtNm1 (THERMODYNAMICS) S.D.=  2.33771997063932E-07
DEBUG_STATS_RL:         GsNm1 (THERMODYNAMICS)  min= -5.42881072651290E-07
DEBUG_STATS_RL:         GsNm1 (THERMODYNAMICS)  max=  4.38610218992149E-07
DEBUG_STATS_RL:         GsNm1 (THERMODYNAMICS) mean= -1.33367997127658E-10
DEBUG_STATS_RL:         GsNm1 (THERMODYNAMICS) S.D.=  2.01722910934155E-08
DEBUG_STATS_RL:                EtaN (DYNAMICS)  min= -1.58183723087285E+00
DEBUG_STATS_RL:                EtaN (DYNAMICS)  max=  9.15344495529773E-01
DEBUG_STATS_RL:                EtaN (DYNAMICS) mean= -1.66639142263839E-01
DEBUG_STATS_RL:                EtaN (DYNAMICS) S.D.=  6.56704832964454E-01
DEBUG_STATS_RL:                Uvel (DYNAMICS)  min= -1.23384896792366E-01
DEBUG_STATS_RL:                Uvel (DYNAMICS)  max=  1.84296500784175E-01
DEBUG_STATS_RL:                Uvel (DYNAMICS) mean=  6.23537106293533E-03
DEBUG_STATS_RL:                Uvel (DYNAMICS) S.D.=  2.51329309117687E-02
DEBUG_STATS_RL:                Vvel (DYNAMICS)  min= -1.09188112188800E-01
DEBUG_STATS_RL:                Vvel (DYNAMICS)  max=  1.27985082255404E-01
DEBUG_STATS_RL:                Vvel (DYNAMICS) mean=  1.47686186683627E-03
DEBUG_STATS_RL:                Vvel (DYNAMICS) S.D.=  1.53457110957700E-02
DEBUG_STATS_RL:                Wvel (DYNAMICS)  min= -1.83869013558336E-04
DEBUG_STATS_RL:                Wvel (DYNAMICS)  max=  1.43030200270759E-04
DEBUG_STATS_RL:                Wvel (DYNAMICS) mean=  2.69359902972827E-07
DEBUG_STATS_RL:                Wvel (DYNAMICS) S.D.=  1.60058761091652E-05
DEBUG_STATS_RL:               Theta (DYNAMICS)  min= -2.01874294559011E+00
DEBUG_STATS_RL:               Theta (DYNAMICS)  max=  2.98476604235952E+01
DEBUG_STATS_RL:               Theta (DYNAMICS) mean=  3.20919022574115E+00
DEBUG_STATS_RL:               Theta (DYNAMICS) S.D.=  5.85689237424142E+00
DEBUG_STATS_RL:                Salt (DYNAMICS)  min= -5.20417042793042E-18
DEBUG_STATS_RL:                Salt (DYNAMICS)  max=  3.74409936480180E+01
DEBUG_STATS_RL:                Salt (DYNAMICS) mean=  1.88452109385180E+01
DEBUG_STATS_RL:                Salt (DYNAMICS) S.D.=  1.73006894923227E+01
DEBUG_STATS_RL:                  Gu (DYNAMICS)  min= -1.30331059151434E-01
DEBUG_STATS_RL:                  Gu (DYNAMICS)  max=  1.87912340403413E-01
DEBUG_STATS_RL:                  Gu (DYNAMICS) mean=  5.84317480001195E-03
DEBUG_STATS_RL:                  Gu (DYNAMICS) S.D.=  2.46745209424820E-02
DEBUG_STATS_RL:                  Gv (DYNAMICS)  min= -1.12944425410934E-01
DEBUG_STATS_RL:                  Gv (DYNAMICS)  max=  1.54283878979211E-01
DEBUG_STATS_RL:                  Gv (DYNAMICS) mean=  3.83881680116269E-03
DEBUG_STATS_RL:                  Gv (DYNAMICS) S.D.=  1.74569729556635E-02
DEBUG_STATS_RL:               GuNm1 (DYNAMICS)  min= -7.24607463470127E-06
DEBUG_STATS_RL:               GuNm1 (DYNAMICS)  max=  7.45767538100265E-06
DEBUG_STATS_RL:               GuNm1 (DYNAMICS) mean= -1.42338232715969E-08
DEBUG_STATS_RL:               GuNm1 (DYNAMICS) S.D.=  1.12311989789781E-06
DEBUG_STATS_RL:               GvNm1 (DYNAMICS)  min= -8.98106842444198E-06
DEBUG_STATS_RL:               GvNm1 (DYNAMICS)  max=  1.69517846806417E-05
DEBUG_STATS_RL:               GvNm1 (DYNAMICS) mean=  7.72131163600438E-07
DEBUG_STATS_RL:               GvNm1 (DYNAMICS) S.D.=  2.57330055570773E-06
DEBUG_STATS_RL:               GtNm1 (DYNAMICS)  min= -3.26648736844228E-06
DEBUG_STATS_RL:               GtNm1 (DYNAMICS)  max=  2.72620994015322E-06
DEBUG_STATS_RL:               GtNm1 (DYNAMICS) mean=  4.40231880064111E-09
DEBUG_STATS_RL:               GtNm1 (DYNAMICS) S.D.=  2.33771997063932E-07
DEBUG_STATS_RL:               GsNm1 (DYNAMICS)  min= -5.42881072651290E-07
DEBUG_STATS_RL:               GsNm1 (DYNAMICS)  max=  4.38610218992149E-07
DEBUG_STATS_RL:               GsNm1 (DYNAMICS) mean= -1.33367997127658E-10
DEBUG_STATS_RL:               GsNm1 (DYNAMICS) S.D.=  2.01722910934155E-08
DEBUG_STATS_RL:    cg2d_b (SOLVE_FOR_PRESSURE)  min= -2.01375345018811E+04
DEBUG_STATS_RL:    cg2d_b (SOLVE_FOR_PRESSURE)  max=  1.39438312067277E+04
DEBUG_STATS_RL:    cg2d_b (SOLVE_FOR_PRESSURE) mean=  1.30953053959171E+00
DEBUG_STATS_RL:    cg2d_b (SOLVE_FOR_PRESSURE) S.D.=  3.26078092640174E+03
 cg2d: Sum(rhs),rhsMax =   1.50542917697915E-01  1.32268718283619E+00
(PID.TID 0000.0001)  cg2d: iter=     1 ; resid.=  1.53732548495975E-01
(PID.TID 0000.0001)  cg2d: iter=     2 ; resid.=  7.92077126498777E-02
(PID.TID 0000.0001)  cg2d: iter=     3 ; resid.=  6.32097471819096E-02
(PID.TID 0000.0001)  cg2d: iter=     4 ; resid.=  5.33653391095376E-02
(PID.TID 0000.0001)  cg2d: iter=     5 ; resid.=  4.83931680757183E-02
(PID.TID 0000.0001)  cg2d: iter=     6 ; resid.=  4.16115790948091E-02
(PID.TID 0000.0001)  cg2d: iter=     7 ; resid.=  3.98770950842067E-02
(PID.TID 0000.0001)  cg2d: iter=     8 ; resid.=  3.38399005609022E-02
(PID.TID 0000.0001)  cg2d: iter=     9 ; resid.=  2.89527619696509E-02
(PID.TID 0000.0001)  cg2d: iter=    10 ; resid.=  2.32725427718973E-02
(PID.TID 0000.0001)  cg2d: iter=    11 ; resid.=  2.01429561697633E-02
(PID.TID 0000.0001)  cg2d: iter=    12 ; resid.=  1.75633287227204E-02
(PID.TID 0000.0001)  cg2d: iter=    13 ; resid.=  1.48824636542342E-02
(PID.TID 0000.0001)  cg2d: iter=    14 ; resid.=  1.15821809490130E-02
(PID.TID 0000.0001)  cg2d: iter=    15 ; resid.=  9.65564895424836E-03
(PID.TID 0000.0001)  cg2d: iter=    16 ; resid.=  8.79575268714335E-03
(PID.TID 0000.0001)  cg2d: iter=    17 ; resid.=  8.68714918166871E-03
(PID.TID 0000.0001)  cg2d: iter=    18 ; resid.=  7.49227473047073E-03
(PID.TID 0000.0001)  cg2d: iter=    19 ; resid.=  5.95884247671112E-03
(PID.TID 0000.0001)  cg2d: iter=    20 ; resid.=  4.73597913643046E-03
(PID.TID 0000.0001)  cg2d: iter=    21 ; resid.=  3.83568549635557E-03
(PID.TID 0000.0001)  cg2d: iter=    22 ; resid.=  3.10619206147935E-03
(PID.TID 0000.0001)  cg2d: iter=    23 ; resid.=  2.40122413951091E-03
(PID.TID 0000.0001)  cg2d: iter=    24 ; resid.=  2.08579912765923E-03
(PID.TID 0000.0001)  cg2d: iter=    25 ; resid.=  1.84081156495961E-03
(PID.TID 0000.0001)  cg2d: iter=    26 ; resid.=  1.58707507981092E-03
(PID.TID 0000.0001)  cg2d: iter=    27 ; resid.=  1.28882189062734E-03
(PID.TID 0000.0001)  cg2d: iter=    28 ; resid.=  1.11192626221171E-03
(PID.TID 0000.0001)  cg2d: iter=    29 ; resid.=  9.00144137560301E-04
(PID.TID 0000.0001)  cg2d: iter=    30 ; resid.=  6.69330748077280E-04
(PID.TID 0000.0001)  cg2d: iter=    31 ; resid.=  5.19644669763657E-04
(PID.TID 0000.0001)  cg2d: iter=    32 ; resid.=  4.30781412055382E-04
(PID.TID 0000.0001)  cg2d: iter=    33 ; resid.=  3.50719782083152E-04
(PID.TID 0000.0001)  cg2d: iter=    34 ; resid.=  2.79874596642092E-04
(PID.TID 0000.0001)  cg2d: iter=    35 ; resid.=  2.22705009474320E-04
(PID.TID 0000.0001)  cg2d: iter=    36 ; resid.=  1.76037751642572E-04
(PID.TID 0000.0001)  cg2d: iter=    37 ; resid.=  1.50418236823864E-04
(PID.TID 0000.0001)  cg2d: iter=    38 ; resid.=  1.54815955496208E-04
(PID.TID 0000.0001)  cg2d: iter=    39 ; resid.=  1.45167152495850E-04
(PID.TID 0000.0001)  cg2d: iter=    40 ; resid.=  1.30488488159596E-04
(PID.TID 0000.0001)  cg2d: iter=    41 ; resid.=  1.04514289244660E-04
(PID.TID 0000.0001)  cg2d: iter=    42 ; resid.=  8.62371132986989E-05
(PID.TID 0000.0001)  cg2d: iter=    43 ; resid.=  6.73298204778513E-05
(PID.TID 0000.0001)  cg2d: iter=    44 ; resid.=  5.23605868560803E-05
(PID.TID 0000.0001)  cg2d: iter=    45 ; resid.=  4.19412213750268E-05
(PID.TID 0000.0001)  cg2d: iter=    46 ; resid.=  3.50940092294134E-05
(PID.TID 0000.0001)  cg2d: iter=    47 ; resid.=  2.75770441304674E-05
(PID.TID 0000.0001)  cg2d: iter=    48 ; resid.=  2.16513795288924E-05
(PID.TID 0000.0001)  cg2d: iter=    49 ; resid.=  1.65318255921456E-05
(PID.TID 0000.0001)  cg2d: iter=    50 ; resid.=  1.40424291002048E-05
(PID.TID 0000.0001)  cg2d: iter=    51 ; resid.=  1.17269542117239E-05
(PID.TID 0000.0001)  cg2d: iter=    52 ; resid.=  9.18716642974285E-06
(PID.TID 0000.0001)  cg2d: iter=    53 ; resid.=  6.85692160274515E-06
(PID.TID 0000.0001)  cg2d: iter=    54 ; resid.=  5.29431725116723E-06
(PID.TID 0000.0001)  cg2d: iter=    55 ; resid.=  4.59564531422403E-06
(PID.TID 0000.0001)  cg2d: iter=    56 ; resid.=  3.95293347643923E-06
(PID.TID 0000.0001)  cg2d: iter=    57 ; resid.=  3.29151108874265E-06
(PID.TID 0000.0001)  cg2d: iter=    58 ; resid.=  2.81457926116949E-06
(PID.TID 0000.0001)  cg2d: iter=    59 ; resid.=  2.42263635085899E-06
(PID.TID 0000.0001)  cg2d: iter=    60 ; resid.=  1.94075238164413E-06
(PID.TID 0000.0001)  cg2d: iter=    61 ; resid.=  1.62419305397730E-06
(PID.TID 0000.0001)  cg2d: iter=    62 ; resid.=  1.38850550300240E-06
(PID.TID 0000.0001)  cg2d: iter=    63 ; resid.=  1.15573140597422E-06
(PID.TID 0000.0001)  cg2d: iter=    64 ; resid.=  9.16258466953376E-07
(PID.TID 0000.0001)  cg2d: iter=    65 ; resid.=  7.54975841691341E-07
(PID.TID 0000.0001)  cg2d: iter=    66 ; resid.=  5.91178281623998E-07
(PID.TID 0000.0001)  cg2d: iter=    67 ; resid.=  4.79052060130255E-07
(PID.TID 0000.0001)  cg2d: iter=    68 ; resid.=  3.85843023918589E-07
(PID.TID 0000.0001)  cg2d: iter=    69 ; resid.=  3.02056051329947E-07
(PID.TID 0000.0001)  cg2d: iter=    70 ; resid.=  2.32310266643605E-07
(PID.TID 0000.0001)  cg2d: iter=    71 ; resid.=  1.83640478962568E-07
(PID.TID 0000.0001)  cg2d: iter=    72 ; resid.=  1.45905254867978E-07
(PID.TID 0000.0001)  cg2d: iter=    73 ; resid.=  1.23295607994859E-07
(PID.TID 0000.0001)  cg2d: iter=    74 ; resid.=  1.05232502628410E-07
(PID.TID 0000.0001)  cg2d: iter=    75 ; resid.=  9.18321301197459E-08
(PID.TID 0000.0001)  cg2d: iter=    76 ; resid.=  8.29610844608190E-08
(PID.TID 0000.0001)  cg2d: iter=    77 ; resid.=  7.57315104804445E-08
(PID.TID 0000.0001)  cg2d: iter=    78 ; resid.=  6.36299245408825E-08
(PID.TID 0000.0001)  cg2d: iter=    79 ; resid.=  5.17068383845338E-08
(PID.TID 0000.0001)  cg2d: iter=    80 ; resid.=  4.17455285266775E-08
(PID.TID 0000.0001)  cg2d: iter=    81 ; resid.=  3.23439060392355E-08
(PID.TID 0000.0001)  cg2d: iter=    82 ; resid.=  2.43593994878393E-08
(PID.TID 0000.0001)  cg2d: iter=    83 ; resid.=  1.86594331516203E-08
(PID.TID 0000.0001)  cg2d: iter=    84 ; resid.=  1.46904417667513E-08
(PID.TID 0000.0001)  cg2d: iter=    85 ; resid.=  1.14030940763884E-08
(PID.TID 0000.0001)  cg2d: iter=    86 ; resid.=  8.16088645865117E-09
(PID.TID 0000.0001)  cg2d: iter=    87 ; resid.=  6.30608413396606E-09
(PID.TID 0000.0001)  cg2d: iter=    88 ; resid.=  4.41035866591943E-09
(PID.TID 0000.0001)  cg2d: iter=    89 ; resid.=  3.19423744927739E-09
(PID.TID 0000.0001)  cg2d: iter=    90 ; resid.=  2.46604465475119E-09
(PID.TID 0000.0001)  cg2d: iter=    91 ; resid.=  2.03384142541432E-09
(PID.TID 0000.0001)  cg2d: iter=    92 ; resid.=  1.74015700447372E-09
(PID.TID 0000.0001)  cg2d: iter=    93 ; resid.=  1.36783197324023E-09
(PID.TID 0000.0001)  cg2d: iter=    94 ; resid.=  1.05180134508030E-09
(PID.TID 0000.0001)  cg2d: iter=    95 ; resid.=  8.27472791475075E-10
(PID.TID 0000.0001)  cg2d: iter=    96 ; resid.=  6.57181015964823E-10
(PID.TID 0000.0001)  cg2d: iter=    97 ; resid.=  5.20668783186448E-10
(PID.TID 0000.0001)  cg2d: iter=    98 ; resid.=  3.89466971722654E-10
(PID.TID 0000.0001)  cg2d: iter=    99 ; resid.=  2.94539399611462E-10
(PID.TID 0000.0001)  cg2d: iter=   100 ; resid.=  2.29693741585967E-10
(PID.TID 0000.0001)  cg2d: iter=   101 ; resid.=  1.85665182459477E-10
(PID.TID 0000.0001)  cg2d: iter=   102 ; resid.=  1.58712247180641E-10
(PID.TID 0000.0001)  cg2d: iter=   103 ; resid.=  1.34929930677580E-10
(PID.TID 0000.0001)  cg2d: iter=   104 ; resid.=  1.09853380430269E-10
(PID.TID 0000.0001)  cg2d: iter=   105 ; resid.=  8.93368293426507E-11
(PID.TID 0000.0001)  cg2d: iter=   106 ; resid.=  7.87670165828573E-11
(PID.TID 0000.0001)  cg2d: iter=   107 ; resid.=  6.83484190560733E-11
(PID.TID 0000.0001)  cg2d: iter=   108 ; resid.=  5.33194600518707E-11
(PID.TID 0000.0001)  cg2d: iter=   109 ; resid.=  4.02057190924807E-11
(PID.TID 0000.0001)  cg2d: iter=   110 ; resid.=  3.10666279505514E-11
(PID.TID 0000.0001)  cg2d: iter=   111 ; resid.=  2.47091944762260E-11
(PID.TID 0000.0001)  cg2d: iter=   112 ; resid.=  2.08800052688078E-11
(PID.TID 0000.0001)  cg2d: iter=   113 ; resid.=  1.67865636594817E-11
(PID.TID 0000.0001)  cg2d: iter=   114 ; resid.=  1.19581150074147E-11
(PID.TID 0000.0001)  cg2d: iter=   115 ; resid.=  9.49511057522115E-12
(PID.TID 0000.0001)  cg2d: iter=   116 ; resid.=  7.93380391269737E-12
(PID.TID 0000.0001)  cg2d: iter=   117 ; resid.=  6.68839650689234E-12
(PID.TID 0000.0001)  cg2d: iter=   118 ; resid.=  5.19225613587329E-12
(PID.TID 0000.0001)  cg2d: iter=   119 ; resid.=  3.79383618120937E-12
(PID.TID 0000.0001)  cg2d: iter=   120 ; resid.=  2.85953925249111E-12
(PID.TID 0000.0001)  cg2d: iter=   121 ; resid.=  2.17335248766407E-12
(PID.TID 0000.0001)  cg2d: iter=   122 ; resid.=  1.59419498164860E-12
(PID.TID 0000.0001)  cg2d: iter=   123 ; resid.=  1.24883593967150E-12
(PID.TID 0000.0001)  cg2d: iter=   124 ; resid.=  9.88552865618961E-13
(PID.TID 0000.0001)  cg2d: iter=   125 ; resid.=  8.05909987633344E-13
(PID.TID 0000.0001)  cg2d: iter=   126 ; resid.=  6.31721675398172E-13
(PID.TID 0000.0001)  cg2d: iter=   127 ; resid.=  4.42605497488633E-13
(PID.TID 0000.0001)  cg2d: iter=   128 ; resid.=  2.84681469629455E-13
(PID.TID 0000.0001)  cg2d: iter=   129 ; resid.=  1.85022915326463E-13
(PID.TID 0000.0001)  cg2d: iter=   130 ; resid.=  1.31234569812629E-13
(PID.TID 0000.0001)  cg2d: iter=   131 ; resid.=  9.42643832996264E-14
DEBUG_STATS_RL:    cg2d_x (SOLVE_FOR_PRESSURE)  min= -1.57299705928432E+01
DEBUG_STATS_RL:    cg2d_x (SOLVE_FOR_PRESSURE)  max=  9.23983938479800E+00
DEBUG_STATS_RL:    cg2d_x (SOLVE_FOR_PRESSURE) mean= -1.64539791965137E+00
DEBUG_STATS_RL:    cg2d_x (SOLVE_FOR_PRESSURE) S.D.=  6.47550232036889E+00
(PID.TID 0000.0001)      cg2d_init_res =   5.16493634938343E-01
(PID.TID 0000.0001)      cg2d_iters(min,last) =      -1     131
(PID.TID 0000.0001)      cg2d_last_res =   9.42643832996264E-14
(PID.TID 0000.0001) // =======================================================
(PID.TID 0000.0001) // Begin MONITOR dynamic field statistics
(PID.TID 0000.0001) // =======================================================
(PID.TID 0000.0001) %MON time_tsnumber                =                    19
(PID.TID 0000.0001) %MON time_secondsf                =   1.6416000000000E+06
(PID.TID 0000.0001) %MON dynstat_eta_max              =   9.4187965186524E-01
(PID.TID 0000.0001) %MON dynstat_eta_min              =  -1.6034628535008E+00
(PID.TID 0000.0001) %MON dynstat_eta_mean             =  -1.3663327416377E-03
(PID.TID 0000.0001) %MON dynstat_eta_sd               =   5.8554999879638E-01
(PID.TID 0000.0001) %MON dynstat_eta_del2             =   1.7925437454069E-03
(PID.TID 0000.0001) %MON dynstat_uvel_max             =   1.8089244566427E-01
(PID.TID 0000.0001) %MON dynstat_uvel_min             =  -1.2990997372535E-01
(PID.TID 0000.0001) %MON dynstat_uvel_mean            =   1.0946027754815E-03
(PID.TID 0000.0001) %MON dynstat_uvel_sd              =   1.4892916771457E-02
(PID.TID 0000.0001) %MON dynstat_uvel_del2            =   9.3778525160843E-05
(PID.TID 0000.0001) %MON dynstat_vvel_max             =   1.3548190054613E-01
(PID.TID 0000.0001) %MON dynstat_vvel_min             =  -1.0882368188019E-01
(PID.TID 0000.0001) %MON dynstat_vvel_mean            =   7.4741535901868E-05
(PID.TID 0000.0001) %MON dynstat_vvel_sd              =   9.3948565449222E-03
(PID.TID 0000.0001) %MON dynstat_vvel_del2            =   8.7621918943307E-05
(PID.TID 0000.0001) %MON dynstat_wvel_max             =   1.3373087839413E-04
(PID.TID 0000.0001) %MON dynstat_wvel_min             =  -1.7712792821643E-04
(PID.TID 0000.0001) %MON dynstat_wvel_mean            =   1.8973996032117E-22
(PID.TID 0000.0001) %MON dynstat_wvel_sd              =   1.7947599913991E-05
(PID.TID 0000.0001) %MON dynstat_wvel_del2            =   2.1076779863766E-07
(PID.TID 0000.0001) %MON dynstat_theta_max            =   2.9847660423595E+01
(PID.TID 0000.0001) %MON dynstat_theta_min            =  -2.0187429455901E+00
(PID.TID 0000.0001) %MON dynstat_theta_mean           =   3.6202262920380E+00
(PID.TID 0000.0001) %MON dynstat_theta_sd             =   4.4156425783378E+00
(PID.TID 0000.0001) %MON dynstat_theta_del2           =   4.8545638105889E-03
(PID.TID 0000.0001) %MON dynstat_salt_max             =   3.7440993648018E+01
(PID.TID 0000.0001) %MON dynstat_salt_min             =   2.9772088212049E+01
(PID.TID 0000.0001) %MON dynstat_salt_mean            =   3.4717983310047E+01
(PID.TID 0000.0001) %MON dynstat_salt_sd              =   2.9621958782038E-01
(PID.TID 0000.0001) %MON dynstat_salt_del2            =   1.0117628534091E-03
(PID.TID 0000.0001) %MON dynstat_sst_max              =   2.9847660423595E+01
(PID.TID 0000.0001) %MON dynstat_sst_min              =  -2.0187429455901E+00
(PID.TID 0000.0001) %MON dynstat_sst_mean             =   1.8684851673348E+01
(PID.TID 0000.0001) %MON dynstat_sst_sd               =   9.0536189233388E+00
(PID.TID 0000.0001) %MON dynstat_sst_del2             =   2.6363099280494E-02
(PID.TID 0000.0001) %MON dynstat_sss_max              =   3.7429717372981E+01
(PID.TID 0000.0001) %MON dynstat_sss_min              =   2.9772088212049E+01
(PID.TID 0000.0001) %MON dynstat_sss_mean             =   3.4853583855815E+01
(PID.TID 0000.0001) %MON dynstat_sss_sd               =   9.7144660576633E-01
(PID.TID 0000.0001) %MON dynstat_sss_del2             =   7.9924609260848E-03
(PID.TID 0000.0001) %MON forcing_qnet_max             =   4.3165635681152E+02
(PID.TID 0000.0001) %MON forcing_qnet_min             =  -1.7930098876953E+02
(PID.TID 0000.0001) %MON forcing_qnet_mean            =  -1.6257798498834E+01
(PID.TID 0000.0001) %MON forcing_qnet_sd              =   1.0664755624532E+02
(PID.TID 0000.0001) %MON forcing_qnet_del2            =   1.0122795175581E+00
(PID.TID 0000.0001) %MON forcing_qsw_max              =   0.0000000000000E+00
(PID.TID 0000.0001) %MON forcing_qsw_min              =   0.0000000000000E+00
(PID.TID 0000.0001) %MON forcing_qsw_mean             =   0.0000000000000E+00
(PID.TID 0000.0001) %MON forcing_qsw_sd               =   0.0000000000000E+00
(PID.TID 0000.0001) %MON forcing_qsw_del2             =   0.0000000000000E+00
(PID.TID 0000.0001) %MON forcing_empmr_max            =   8.1231969772944E-05
(PID.TID 0000.0001) %MON forcing_empmr_min            =  -7.6394888992581E-05
(PID.TID 0000.0001) %MON forcing_empmr_mean           =   9.2498425389048E-07
(PID.TID 0000.0001) %MON forcing_empmr_sd             =   2.8645556443893E-05
(PID.TID 0000.0001) %MON forcing_empmr_del2           =   3.6402796723615E-07
(PID.TID 0000.0001) %MON forcing_fu_max               =   2.7819065451622E-01
(PID.TID 0000.0001) %MON forcing_fu_min               =  -1.7091440856457E-01
(PID.TID 0000.0001) %MON forcing_fu_mean              =   1.6164635798973E-02
(PID.TID 0000.0001) %MON forcing_fu_sd                =   9.0554740471920E-02
(PID.TID 0000.0001) %MON forcing_fu_del2              =   7.0326557516560E-04
(PID.TID 0000.0001) %MON forcing_fv_max               =   2.2349597960711E-01
(PID.TID 0000.0001) %MON forcing_fv_min               =  -1.7516300082207E-01
(PID.TID 0000.0001) %MON forcing_fv_mean              =  -5.4546804596506E-03
(PID.TID 0000.0001) %MON forcing_fv_sd                =   4.7328470565258E-02
(PID.TID 0000.0001) %MON forcing_fv_del2              =   4.8406077640453E-04
(PID.TID 0000.0001) %MON trAdv_CFL_u_max              =   4.8191315527158E-02
(PID.TID 0000.0001) %MON trAdv_CFL_v_max              =   2.5071757466884E-02
(PID.TID 0000.0001) %MON trAdv_CFL_w_max              =   6.1581029782125E-02
(PID.TID 0000.0001) %MON advcfl_uvel_max              =   4.7291590846991E-02
(PID.TID 0000.0001) %MON advcfl_vvel_max              =   2.6321960407662E-02
(PID.TID 0000.0001) %MON advcfl_wvel_max              =   5.3607166588851E-02
(PID.TID 0000.0001) %MON advcfl_W_hf_max              =   5.9191246441856E-02
(PID.TID 0000.0001) %MON pe_b_mean                    =   4.3874434682139E-04
(PID.TID 0000.0001) %MON ke_max                       =   1.7462448246458E-02
(PID.TID 0000.0001) %MON ke_mean                      =   1.4093875438888E-04
(PID.TID 0000.0001) %MON ke_vol                       =   1.3226782436723E+18
(PID.TID 0000.0001) %MON vort_r_min                   =  -3.0942408763399E-07
(PID.TID 0000.0001) %MON vort_r_max                   =   4.0065412678679E-07
(PID.TID 0000.0001) %MON vort_a_mean                  =  -2.5274806970128E-05
(PID.TID 0000.0001) %MON vort_a_sd                    =   7.3604480183787E-05
(PID.TID 0000.0001) %MON vort_p_mean                  =  -3.1845655261056E-05
(PID.TID 0000.0001) %MON vort_p_sd                    =   1.3162421229863E-04
(PID.TID 0000.0001) %MON surfExpan_theta_mean         =   2.7656582850149E-07
(PID.TID 0000.0001) %MON surfExpan_salt_mean          =   3.6330292966102E-08
(PID.TID 0000.0001) // =======================================================
(PID.TID 0000.0001) // End MONITOR dynamic field statistics
(PID.TID 0000.0001) // =======================================================
 EXTERNAL_FIELDS_LOAD,        19 : iP,iLd,i0,i1=    1    2    1    2 ; Wght=  0.8666666667  0.1333333333
 EXTERNAL_FIELDS_LOAD: (fu0,1),fu,fv= -3.5633E-02 -1.4435E-02 -3.2807E-02 -5.1974E-02
 EXTERNAL_FIELDS_LOAD: SST,SSS,Q,E-P=  7.5972E-01  3.4675E+01  2.6240E+02  1.1202E-05
DEBUG_STATS_RL:          Uvel (THERMODYNAMICS)  min= -1.29909973725352E-01
DEBUG_STATS_RL:          Uvel (THERMODYNAMICS)  max=  1.80892445664275E-01
DEBUG_STATS_RL:          Uvel (THERMODYNAMICS) mean=  5.92296752301898E-03
DEBUG_STATS_RL:          Uvel (THERMODYNAMICS) S.D.=  2.43708187410752E-02
DEBUG_STATS_RL:          Vvel (THERMODYNAMICS)  min= -1.08823681880195E-01
DEBUG_STATS_RL:          Vvel (THERMODYNAMICS)  max=  1.35481900546125E-01
DEBUG_STATS_RL:          Vvel (THERMODYNAMICS) mean=  1.71015052204203E-03
DEBUG_STATS_RL:          Vvel (THERMODYNAMICS) S.D.=  1.58472264598514E-02
DEBUG_STATS_RL:          Wvel (THERMODYNAMICS)  min= -1.77127928216433E-04
DEBUG_STATS_RL:          Wvel (THERMODYNAMICS)  max=  1.33730878394134E-04
DEBUG_STATS_RL:          Wvel (THERMODYNAMICS) mean=  3.50982450364390E-07
DEBUG_STATS_RL:          Wvel (THERMODYNAMICS) S.D.=  1.63303304818114E-05
DEBUG_STATS_RL:         Theta (THERMODYNAMICS)  min= -2.01788611911630E+00
DEBUG_STATS_RL:         Theta (THERMODYNAMICS)  max=  2.98529416899422E+01
DEBUG_STATS_RL:         Theta (THERMODYNAMICS) mean=  3.20922375372945E+00
DEBUG_STATS_RL:         Theta (THERMODYNAMICS) S.D.=  5.85719394958284E+00
DEBUG_STATS_RL:          Salt (THERMODYNAMICS)  min= -5.20417042793042E-18
DEBUG_STATS_RL:          Salt (THERMODYNAMICS)  max=  3.74419752190318E+01
DEBUG_STATS_RL:          Salt (THERMODYNAMICS) mean=  1.88452002675933E+01
DEBUG_STATS_RL:          Salt (THERMODYNAMICS) S.D.=  1.73006802235488E+01
DEBUG_STATS_RL:         GtNm1 (THERMODYNAMICS)  min= -3.26729429203589E-06
DEBUG_STATS_RL:         GtNm1 (THERMODYNAMICS)  max=  2.59695143323243E-06
DEBUG_STATS_RL:         GtNm1 (THERMODYNAMICS) mean=  2.37748373941323E-09
DEBUG_STATS_RL:         GtNm1 (THERMODYNAMICS) S.D.=  2.33761866386105E-07
DEBUG_STATS_RL:         GsNm1 (THERMODYNAMICS)  min= -5.21795501495008E-07
DEBUG_STATS_RL:         GsNm1 (THERMODYNAMICS)  max=  3.89446813705334E-07
DEBUG_STATS_RL:         GsNm1 (THERMODYNAMICS) mean= -2.25811363385508E-10
DEBUG_STATS_RL:         GsNm1 (THERMODYNAMICS) S.D.=  2.04746270915776E-08
DEBUG_STATS_RL:                EtaN (DYNAMICS)  min= -1.60346285350082E+00
DEBUG_STATS_RL:                EtaN (DYNAMICS)  max=  9.41879651865237E-01
DEBUG_STATS_RL:                EtaN (DYNAMICS) mean= -1.67726597314106E-01
DEBUG_STATS_RL:                EtaN (DYNAMICS) S.D.=  6.60091979650242E-01
DEBUG_STATS_RL:                Uvel (DYNAMICS)  min= -1.29909973725352E-01
DEBUG_STATS_RL:                Uvel (DYNAMICS)  max=  1.80892445664275E-01
DEBUG_STATS_RL:                Uvel (DYNAMICS) mean=  5.92296752301898E-03
DEBUG_STATS_RL:                Uvel (DYNAMICS) S.D.=  2.43708187410752E-02
DEBUG_STATS_RL:                Vvel (DYNAMICS)  min= -1.08823681880195E-01
DEBUG_STATS_RL:                Vvel (DYNAMICS)  max=  1.35481900546125E-01
DEBUG_STATS_RL:                Vvel (DYNAMICS) mean=  1.71015052204203E-03
DEBUG_STATS_RL:                Vvel (DYNAMICS) S.D.=  1.58472264598514E-02
DEBUG_STATS_RL:                Wvel (DYNAMICS)  min= -1.77127928216433E-04
DEBUG_STATS_RL:                Wvel (DYNAMICS)  max=  1.33730878394134E-04
DEBUG_STATS_RL:                Wvel (DYNAMICS) mean=  3.50982450364390E-07
DEBUG_STATS_RL:                Wvel (DYNAMICS) S.D.=  1.63303304818114E-05
DEBUG_STATS_RL:               Theta (DYNAMICS)  min= -2.01788611911630E+00
DEBUG_STATS_RL:               Theta (DYNAMICS)  max=  2.98529416899422E+01
DEBUG_STATS_RL:               Theta (DYNAMICS) mean=  3.20922375372945E+00
DEBUG_STATS_RL:               Theta (DYNAMICS) S.D.=  5.85719394958284E+00
DEBUG_STATS_RL:                Salt (DYNAMICS)  min= -5.20417042793042E-18
DEBUG_STATS_RL:                Salt (DYNAMICS)  max=  3.74419752190318E+01
DEBUG_STATS_RL:                Salt (DYNAMICS) mean=  1.88452002675933E+01
DEBUG_STATS_RL:                Salt (DYNAMICS) S.D.=  1.73006802235488E+01
DEBUG_STATS_RL:                  Gu (DYNAMICS)  min= -1.36551135961835E-01
DEBUG_STATS_RL:                  Gu (DYNAMICS)  max=  1.82649275657334E-01
DEBUG_STATS_RL:                  Gu (DYNAMICS) mean=  5.45372244510866E-03
DEBUG_STATS_RL:                  Gu (DYNAMICS) S.D.=  2.37717652720906E-02
DEBUG_STATS_RL:                  Gv (DYNAMICS)  min= -1.22841386352812E-01
DEBUG_STATS_RL:                  Gv (DYNAMICS)  max=  1.64193863040038E-01
DEBUG_STATS_RL:                  Gv (DYNAMICS) mean=  4.01540576440990E-03
DEBUG_STATS_RL:                  Gv (DYNAMICS) S.D.=  1.79985706918045E-02
DEBUG_STATS_RL:               GuNm1 (DYNAMICS)  min= -7.36736486220316E-06
DEBUG_STATS_RL:               GuNm1 (DYNAMICS)  max=  7.56605195795632E-06
DEBUG_STATS_RL:               GuNm1 (DYNAMICS) mean= -1.34269840095630E-08
DEBUG_STATS_RL:               GuNm1 (DYNAMICS) S.D.=  1.13335544425947E-06
DEBUG_STATS_RL:               GvNm1 (DYNAMICS)  min= -9.17721372937912E-06
DEBUG_STATS_RL:               GvNm1 (DYNAMICS)  max=  1.69596911156929E-05
DEBUG_STATS_RL:               GvNm1 (DYNAMICS) mean=  7.71557675260133E-07
DEBUG_STATS_RL:               GvNm1 (DYNAMICS) S.D.=  2.57972922157151E-06
DEBUG_STATS_RL:               GtNm1 (DYNAMICS)  min= -3.26729429203589E-06
DEBUG_STATS_RL:               GtNm1 (DYNAMICS)  max=  2.59695143323243E-06
DEBUG_STATS_RL:               GtNm1 (DYNAMICS) mean=  2.37748373941323E-09
DEBUG_STATS_RL:               GtNm1 (DYNAMICS) S.D.=  2.33761866386105E-07
DEBUG_STATS_RL:               GsNm1 (DYNAMICS)  min= -5.21795501495008E-07
DEBUG_STATS_RL:               GsNm1 (DYNAMICS)  max=  3.89446813705334E-07
DEBUG_STATS_RL:               GsNm1 (DYNAMICS) mean= -2.25811363385508E-10
DEBUG_STATS_RL:               GsNm1 (DYNAMICS) S.D.=  2.04746270915776E-08
DEBUG_STATS_RL:    cg2d_b (SOLVE_FOR_PRESSURE)  min= -2.09546235157608E+04
DEBUG_STATS_RL:    cg2d_b (SOLVE_FOR_PRESSURE)  max=  1.47762528466940E+04
DEBUG_STATS_RL:    cg2d_b (SOLVE_FOR_PRESSURE) mean=  1.38359112933088E+00
DEBUG_STATS_RL:    cg2d_b (SOLVE_FOR_PRESSURE) S.D.=  3.32688471397460E+03
 cg2d: Sum(rhs),rhsMax =   1.52854736902962E-01  1.37635577696295E+00
(PID.TID 0000.0001)  cg2d: iter=     1 ; resid.=  1.44136150362904E-01
(PID.TID 0000.0001)  cg2d: iter=     2 ; resid.=  7.21669428504247E-02
(PID.TID 0000.0001)  cg2d: iter=     3 ; resid.=  5.41088187449818E-02
(PID.TID 0000.0001)  cg2d: iter=     4 ; resid.=  4.58352089167570E-02
(PID.TID 0000.0001)  cg2d: iter=     5 ; resid.=  4.27134823784439E-02
(PID.TID 0000.0001)  cg2d: iter=     6 ; resid.=  3.82560609804316E-02
(PID.TID 0000.0001)  cg2d: iter=     7 ; resid.=  3.65182842941164E-02
(PID.TID 0000.0001)  cg2d: iter=     8 ; resid.=  3.09239665939560E-02
(PID.TID 0000.0001)  cg2d: iter=     9 ; resid.=  2.58764276869319E-02
(PID.TID 0000.0001)  cg2d: iter=    10 ; resid.=  1.97421067435060E-02
(PID.TID 0000.0001)  cg2d: iter=    11 ; resid.=  1.57221021377385E-02
(PID.TID 0000.0001)  cg2d: iter=    12 ; resid.=  1.29920137249137E-02
(PID.TID 0000.0001)  cg2d: iter=    13 ; resid.=  1.10837771972972E-02
(PID.TID 0000.0001)  cg2d: iter=    14 ; resid.=  8.72603148281234E-03
(PID.TID 0000.0001)  cg2d: iter=    15 ; resid.=  7.21691627691546E-03
(PID.TID 0000.0001)  cg2d: iter=    16 ; resid.=  6.33016529628072E-03
(PID.TID 0000.0001)  cg2d: iter=    17 ; resid.=  6.21564646708085E-03
(PID.TID 0000.0001)  cg2d: iter=    18 ; resid.=  5.67865719872749E-03
(PID.TID 0000.0001)  cg2d: iter=    19 ; resid.=  4.78874494656110E-03
(PID.TID 0000.0001)  cg2d: iter=    20 ; resid.=  3.93519452044385E-03
(PID.TID 0000.0001)  cg2d: iter=    21 ; resid.=  3.22203213942738E-03
(PID.TID 0000.0001)  cg2d: iter=    22 ; resid.=  2.64507325751823E-03
(PID.TID 0000.0001)  cg2d: iter=    23 ; resid.=  2.08194070388614E-03
(PID.TID 0000.0001)  cg2d: iter=    24 ; resid.=  1.82930983802714E-03
(PID.TID 0000.0001)  cg2d: iter=    25 ; resid.=  1.61396844303762E-03
(PID.TID 0000.0001)  cg2d: iter=    26 ; resid.=  1.37451597249818E-03
(PID.TID 0000.0001)  cg2d: iter=    27 ; resid.=  1.10217413447235E-03
(PID.TID 0000.0001)  cg2d: iter=    28 ; resid.=  9.26001606426736E-04
(PID.TID 0000.0001)  cg2d: iter=    29 ; resid.=  7.38709118284075E-04
(PID.TID 0000.0001)  cg2d: iter=    30 ; resid.=  5.49060987273714E-04
(PID.TID 0000.0001)  cg2d: iter=    31 ; resid.=  4.20981299854651E-04
(PID.TID 0000.0001)  cg2d: iter=    32 ; resid.=  3.53461497832576E-04
(PID.TID 0000.0001)  cg2d: iter=    33 ; resid.=  2.91481542382102E-04
(PID.TID 0000.0001)  cg2d: iter=    34 ; resid.=  2.33357455665546E-04
(PID.TID 0000.0001)  cg2d: iter=    35 ; resid.=  1.88223685148743E-04
(PID.TID 0000.0001)  cg2d: iter=    36 ; resid.=  1.51859956495425E-04
(PID.TID 0000.0001)  cg2d: iter=    37 ; resid.=  1.28632662622648E-04
(PID.TID 0000.0001)  cg2d: iter=    38 ; resid.=  1.27887997764818E-04
(PID.TID 0000.0001)  cg2d: iter=    39 ; resid.=  1.20618804622671E-04
(PID.TID 0000.0001)  cg2d: iter=    40 ; resid.=  1.11395468162916E-04
(PID.TID 0000.0001)  cg2d: iter=    41 ; resid.=  8.89591478754843E-05
(PID.TID 0000.0001)  cg2d: iter=    42 ; resid.=  7.09350562429119E-05
(PID.TID 0000.0001)  cg2d: iter=    43 ; resid.=  5.41930683243025E-05
(PID.TID 0000.0001)  cg2d: iter=    44 ; resid.=  4.17215939819280E-05
(PID.TID 0000.0001)  cg2d: iter=    45 ; resid.=  3.17321395608056E-05
(PID.TID 0000.0001)  cg2d: iter=    46 ; resid.=  2.54799678634613E-05
(PID.TID 0000.0001)  cg2d: iter=    47 ; resid.=  1.97293444341618E-05
(PID.TID 0000.0001)  cg2d: iter=    48 ; resid.=  1.60620771666717E-05
(PID.TID 0000.0001)  cg2d: iter=    49 ; resid.=  1.26003692063545E-05
(PID.TID 0000.0001)  cg2d: iter=    50 ; resid.=  1.07578422558047E-05
(PID.TID 0000.0001)  cg2d: iter=    51 ; resid.=  9.02223150615573E-06
(PID.TID 0000.0001)  cg2d: iter=    52 ; resid.=  7.46364787131864E-06
(PID.TID 0000.0001)  cg2d: iter=    53 ; resid.=  6.09586347334607E-06
(PID.TID 0000.0001)  cg2d: iter=    54 ; resid.=  5.10663937401185E-06
(PID.TID 0000.0001)  cg2d: iter=    55 ; resid.=  4.66238471151217E-06
(PID.TID 0000.0001)  cg2d: iter=    56 ; resid.=  4.08649667823593E-06
(PID.TID 0000.0001)  cg2d: iter=    57 ; resid.=  3.33680518253081E-06
(PID.TID 0000.0001)  cg2d: iter=    58 ; resid.=  2.70049621790359E-06
(PID.TID 0000.0001)  cg2d: iter=    59 ; resid.=  2.19132766148275E-06
(PID.TID 0000.0001)  cg2d: iter=    60 ; resid.=  1.69390323805239E-06
(PID.TID 0000.0001)  cg2d: iter=    61 ; resid.=  1.41780313643373E-06
(PID.TID 0000.0001)  cg2d: iter=    62 ; resid.=  1.18386367739227E-06
(PID.TID 0000.0001)  cg2d: iter=    63 ; resid.=  9.55405608148400E-07
(PID.TID 0000.0001)  cg2d: iter=    64 ; resid.=  7.44511602757356E-07
(PID.TID 0000.0001)  cg2d: iter=    65 ; resid.=  6.25247637013822E-07
(PID.TID 0000.0001)  cg2d: iter=    66 ; resid.=  5.00703520266544E-07
(PID.TID 0000.0001)  cg2d: iter=    67 ; resid.=  4.02593530761573E-07
(PID.TID 0000.0001)  cg2d: iter=    68 ; resid.=  3.23310112829556E-07
(PID.TID 0000.0001)  cg2d: iter=    69 ; resid.=  2.58433880842237E-07
(PID.TID 0000.0001)  cg2d: iter=    70 ; resid.=  2.08999576426563E-07
(PID.TID 0000.0001)  cg2d: iter=    71 ; resid.=  1.77950818480040E-07
(PID.TID 0000.0001)  cg2d: iter=    72 ; resid.=  1.46125384609240E-07
(PID.TID 0000.0001)  cg2d: iter=    73 ; resid.=  1.25202021301899E-07
(PID.TID 0000.0001)  cg2d: iter=    74 ; resid.=  1.05980871416953E-07
(PID.TID 0000.0001)  cg2d: iter=    75 ; resid.=  9.03575846760731E-08
(PID.TID 0000.0001)  cg2d: iter=    76 ; resid.=  7.96521386668411E-08
(PID.TID 0000.0001)  cg2d: iter=    77 ; resid.=  7.35041386193245E-08
(PID.TID 0000.0001)  cg2d: iter=    78 ; resid.=  6.08686981736837E-08
(PID.TID 0000.0001)  cg2d: iter=    79 ; resid.=  4.79072464442019E-08
(PID.TID 0000.0001)  cg2d: iter=    80 ; resid.=  3.73398931632608E-08
(PID.TID 0000.0001)  cg2d: iter=    81 ; resid.=  2.86106008590956E-08
(PID.TID 0000.0001)  cg2d: iter=    82 ; resid.=  2.20380026277225E-08
(PID.TID 0000.0001)  cg2d: iter=    83 ; resid.=  1.76270244793643E-08
(PID.TID 0000.0001)  cg2d: iter=    84 ; resid.=  1.42154894424335E-08
(PID.TID 0000.0001)  cg2d: iter=    85 ; resid.=  1.10896587900285E-08
(PID.TID 0000.0001)  cg2d: iter=    86 ; resid.=  7.90977166123217E-09
(PID.TID 0000.0001)  cg2d: iter=    87 ; resid.=  6.12290282673997E-09
(PID.TID 0000.0001)  cg2d: iter=    88 ; resid.=  4.28619082256399E-09
(PID.TID 0000.0001)  cg2d: iter=    89 ; resid.=  3.11191522817453E-09
(PID.TID 0000.0001)  cg2d: iter=    90 ; resid.=  2.33431028106229E-09
(PID.TID 0000.0001)  cg2d: iter=    91 ; resid.=  1.82550445238035E-09
(PID.TID 0000.0001)  cg2d: iter=    92 ; resid.=  1.48236451170160E-09
(PID.TID 0000.0001)  cg2d: iter=    93 ; resid.=  1.12790646539439E-09
(PID.TID 0000.0001)  cg2d: iter=    94 ; resid.=  8.77700433501212E-10
(PID.TID 0000.0001)  cg2d: iter=    95 ; resid.=  7.13680670168998E-10
(PID.TID 0000.0001)  cg2d: iter=    96 ; resid.=  5.50921747461805E-10
(PID.TID 0000.0001)  cg2d: iter=    97 ; resid.=  4.05088841803405E-10
(PID.TID 0000.0001)  cg2d: iter=    98 ; resid.=  2.91807844459700E-10
(PID.TID 0000.0001)  cg2d: iter=    99 ; resid.=  2.18784955022090E-10
(PID.TID 0000.0001)  cg2d: iter=   100 ; resid.=  1.70053511833112E-10
(PID.TID 0000.0001)  cg2d: iter=   101 ; resid.=  1.32261520685602E-10
(PID.TID 0000.0001)  cg2d: iter=   102 ; resid.=  1.07338602910491E-10
(PID.TID 0000.0001)  cg2d: iter=   103 ; resid.=  8.95200833790992E-11
(PID.TID 0000.0001)  cg2d: iter=   104 ; resid.=  7.42120894585294E-11
(PID.TID 0000.0001)  cg2d: iter=   105 ; resid.=  6.13499107760937E-11
(PID.TID 0000.0001)  cg2d: iter=   106 ; resid.=  5.42998931243227E-11
(PID.TID 0000.0001)  cg2d: iter=   107 ; resid.=  4.93246257045921E-11
(PID.TID 0000.0001)  cg2d: iter=   108 ; resid.=  3.99117716583809E-11
(PID.TID 0000.0001)  cg2d: iter=   109 ; resid.=  3.03357185447236E-11
(PID.TID 0000.0001)  cg2d: iter=   110 ; resid.=  2.30872103836064E-11
(PID.TID 0000.0001)  cg2d: iter=   111 ; resid.=  1.81717514213443E-11
(PID.TID 0000.0001)  cg2d: iter=   112 ; resid.=  1.50988899531461E-11
(PID.TID 0000.0001)  cg2d: iter=   113 ; resid.=  1.21575228072638E-11
(PID.TID 0000.0001)  cg2d: iter=   114 ; resid.=  8.36406073835637E-12
(PID.TID 0000.0001)  cg2d: iter=   115 ; resid.=  6.17091537549439E-12
(PID.TID 0000.0001)  cg2d: iter=   116 ; resid.=  4.93298079416492E-12
(PID.TID 0000.0001)  cg2d: iter=   117 ; resid.=  4.32808716071695E-12
(PID.TID 0000.0001)  cg2d: iter=   118 ; resid.=  3.60215896015963E-12
(PID.TID 0000.0001)  cg2d: iter=   119 ; resid.=  2.67341976079919E-12
(PID.TID 0000.0001)  cg2d: iter=   120 ; resid.=  2.01397755128402E-12
(PID.TID 0000.0001)  cg2d: iter=   121 ; resid.=  1.57019493613013E-12
(PID.TID 0000.0001)  cg2d: iter=   122 ; resid.=  1.17228432795756E-12
(PID.TID 0000.0001)  cg2d: iter=   123 ; resid.=  9.40641796171339E-13
(PID.TID 0000.0001)  cg2d: iter=   124 ; resid.=  7.31611884455745E-13
(PID.TID 0000.0001)  cg2d: iter=   125 ; resid.=  5.76652208331477E-13
(PID.TID 0000.0001)  cg2d: iter=   126 ; resid.=  4.59716233924907E-13
(PID.TID 0000.0001)  cg2d: iter=   127 ; resid.=  3.46937214344914E-13
(PID.TID 0000.0001)  cg2d: iter=   128 ; resid.=  2.37437848974847E-13
(PID.TID 0000.0001)  cg2d: iter=   129 ; resid.=  1.60636575192672E-13
(PID.TID 0000.0001)  cg2d: iter=   130 ; resid.=  1.17176969535772E-13
(PID.TID 0000.0001)  cg2d: iter=   131 ; resid.=  8.63140598911029E-14
DEBUG_STATS_RL:    cg2d_x (SOLVE_FOR_PRESSURE)  min= -1.59013776511465E+01
DEBUG_STATS_RL:    cg2d_x (SOLVE_FOR_PRESSURE)  max=  9.37999103788730E+00
DEBUG_STATS_RL:    cg2d_x (SOLVE_FOR_PRESSURE) mean= -1.65189054593323E+00
DEBUG_STATS_RL:    cg2d_x (SOLVE_FOR_PRESSURE) S.D.=  6.48917975166742E+00
(PID.TID 0000.0001)      cg2d_init_res =   4.99067219038279E-01
(PID.TID 0000.0001)      cg2d_iters(min,last) =      -1     131
(PID.TID 0000.0001)      cg2d_last_res =   8.63140598911029E-14
(PID.TID 0000.0001) // =======================================================
(PID.TID 0000.0001) // Begin MONITOR dynamic field statistics
(PID.TID 0000.0001) // =======================================================
(PID.TID 0000.0001) %MON time_tsnumber                =                    20
(PID.TID 0000.0001) %MON time_secondsf                =   1.7280000000000E+06
(PID.TID 0000.0001) %MON dynstat_eta_max              =   9.5616626278167E-01
(PID.TID 0000.0001) %MON dynstat_eta_min              =  -1.6209355403819E+00
(PID.TID 0000.0001) %MON dynstat_eta_mean             =  -1.4436057838208E-03
(PID.TID 0000.0001) %MON dynstat_eta_sd               =   5.8589526243756E-01
(PID.TID 0000.0001) %MON dynstat_eta_del2             =   1.8277061983338E-03
(PID.TID 0000.0001) %MON dynstat_uvel_max             =   1.7538923918281E-01
(PID.TID 0000.0001) %MON dynstat_uvel_min             =  -1.3597416574130E-01
(PID.TID 0000.0001) %MON dynstat_uvel_mean            =   1.1670008143970E-03
(PID.TID 0000.0001) %MON dynstat_uvel_sd              =   1.4380806166432E-02
(PID.TID 0000.0001) %MON dynstat_uvel_del2            =   9.1799643217164E-05
(PID.TID 0000.0001) %MON dynstat_vvel_max             =   1.4515423514143E-01
(PID.TID 0000.0001) %MON dynstat_vvel_min             =  -1.1316747045044E-01
(PID.TID 0000.0001) %MON dynstat_vvel_mean            =   6.0098531747125E-05
(PID.TID 0000.0001) %MON dynstat_vvel_sd              =   9.6242291585357E-03
(PID.TID 0000.0001) %MON dynstat_vvel_del2            =   8.8050791111112E-05
(PID.TID 0000.0001) %MON dynstat_wvel_max             =   1.2273088140313E-04
(PID.TID 0000.0001) %MON dynstat_wvel_min             =  -1.6896508062421E-04
(PID.TID 0000.0001) %MON dynstat_wvel_mean            =  -8.6546744269314E-23
(PID.TID 0000.0001) %MON dynstat_wvel_sd              =   1.7950655592670E-05
(PID.TID 0000.0001) %MON dynstat_wvel_del2            =   2.0907724501765E-07
(PID.TID 0000.0001) %MON dynstat_theta_max            =   2.9852941689942E+01
(PID.TID 0000.0001) %MON dynstat_theta_min            =  -2.0178861191163E+00
(PID.TID 0000.0001) %MON dynstat_theta_mean           =   3.6203104894634E+00
(PID.TID 0000.0001) %MON dynstat_theta_sd             =   4.4157610740961E+00
(PID.TID 0000.0001) %MON dynstat_theta_del2           =   4.8482381473693E-03
(PID.TID 0000.0001) %MON dynstat_salt_max             =   3.7441975219032E+01
(PID.TID 0000.0001) %MON dynstat_salt_min             =   2.9776267649598E+01
(PID.TID 0000.0001) %MON dynstat_salt_mean            =   3.4717983260100E+01
(PID.TID 0000.0001) %MON dynstat_salt_sd              =   2.9622383595653E-01
(PID.TID 0000.0001) %MON dynstat_salt_del2            =   1.0111956460557E-03
(PID.TID 0000.0001) %MON dynstat_sst_max              =   2.9852941689942E+01
(PID.TID 0000.0001) %MON dynstat_sst_min              =  -2.0178861191163E+00
(PID.TID 0000.0001) %MON dynstat_sst_mean             =   1.8689180286956E+01
(PID.TID 0000.0001) %MON dynstat_sst_sd               =   9.0550120257033E+00
(PID.TID 0000.0001) %MON dynstat_sst_del2             =   2.6387725140537E-02
(PID.TID 0000.0001) %MON dynstat_sss_max              =   3.7430013338143E+01
(PID.TID 0000.0001) %MON dynstat_sss_min              =   2.9776267649598E+01
(PID.TID 0000.0001) %MON dynstat_sss_mean             =   3.4853007981784E+01
(PID.TID 0000.0001) %MON dynstat_sss_sd               =   9.7190548294544E-01
(PID.TID 0000.0001) %MON dynstat_sss_del2             =   7.9882440640507E-03
(PID.TID 0000.0001) %MON forcing_qnet_max             =   4.2833727010091E+02
(PID.TID 0000.0001) %MON forcing_qnet_min             =  -1.7906146952311E+02
(PID.TID 0000.0001) %MON forcing_qnet_mean            =  -1.6172889331431E+01
(PID.TID 0000.0001) %MON forcing_qnet_sd              =   1.0557973223763E+02
(PID.TID 0000.0001) %MON forcing_qnet_del2            =   1.0083982826333E+00
(PID.TID 0000.0001) %MON forcing_qsw_max              =   0.0000000000000E+00
(PID.TID 0000.0001) %MON forcing_qsw_min              =   0.0000000000000E+00
(PID.TID 0000.0001) %MON forcing_qsw_mean             =   0.0000000000000E+00
(PID.TID 0000.0001) %MON forcing_qsw_sd               =   0.0000000000000E+00
(PID.TID 0000.0001) %MON forcing_qsw_del2             =   0.0000000000000E+00
(PID.TID 0000.0001) %MON forcing_empmr_max            =   8.0917880040943E-05
(PID.TID 0000.0001) %MON forcing_empmr_min            =  -7.6474533254138E-05
(PID.TID 0000.0001) %MON forcing_empmr_mean           =   9.2566665115046E-07
(PID.TID 0000.0001) %MON forcing_empmr_sd             =   2.8597523558275E-05
(PID.TID 0000.0001) %MON forcing_empmr_del2           =   3.6295745305298E-07
(PID.TID 0000.0001) %MON forcing_fu_max               =   2.7799457907677E-01
(PID.TID 0000.0001) %MON forcing_fu_min               =  -1.7257433235645E-01
(PID.TID 0000.0001) %MON forcing_fu_mean              =   1.6218936014442E-02
(PID.TID 0000.0001) %MON forcing_fu_sd                =   9.0419897423294E-02
(PID.TID 0000.0001) %MON forcing_fu_del2              =   6.9713620396268E-04
(PID.TID 0000.0001) %MON forcing_fv_max               =   2.2028753260771E-01
(PID.TID 0000.0001) %MON forcing_fv_min               =  -1.7417170107365E-01
(PID.TID 0000.0001) %MON forcing_fv_mean              =  -5.5199413663658E-03
(PID.TID 0000.0001) %MON forcing_fv_sd                =   4.7048267643353E-02
(PID.TID 0000.0001) %MON forcing_fv_del2              =   4.7981650683968E-04
(PID.TID 0000.0001) %MON trAdv_CFL_u_max              =   4.7301196107327E-02
(PID.TID 0000.0001) %MON trAdv_CFL_v_max              =   2.7262724050343E-02
(PID.TID 0000.0001) %MON trAdv_CFL_w_max              =   5.9191246441856E-02
(PID.TID 0000.0001) %MON advcfl_uvel_max              =   4.5852860841920E-02
(PID.TID 0000.0001) %MON advcfl_vvel_max              =   2.8201139893933E-02
(PID.TID 0000.0001) %MON advcfl_wvel_max              =   5.1003120445737E-02
(PID.TID 0000.0001) %MON advcfl_W_hf_max              =   5.6315945492168E-02
(PID.TID 0000.0001) %MON pe_b_mean                    =   4.3926217673438E-04
(PID.TID 0000.0001) %MON ke_max                       =   1.6585630328010E-02
(PID.TID 0000.0001) %MON ke_mean                      =   1.3615994136684E-04
(PID.TID 0000.0001) %MON ke_vol                       =   1.3226782436723E+18
(PID.TID 0000.0001) %MON vort_r_min                   =  -2.8006211571240E-07
(PID.TID 0000.0001) %MON vort_r_max                   =   3.9620802058620E-07
(PID.TID 0000.0001) %MON vort_a_mean                  =  -2.5274807003391E-05
(PID.TID 0000.0001) %MON vort_a_sd                    =   7.3604495006409E-05
(PID.TID 0000.0001) %MON vort_p_mean                  =  -3.1845655302966E-05
(PID.TID 0000.0001) %MON vort_p_sd                    =   1.3162441261536E-04
(PID.TID 0000.0001) %MON surfExpan_theta_mean         =   1.8529903437053E-07
(PID.TID 0000.0001) %MON surfExpan_salt_mean          =   4.7993533446906E-08
(PID.TID 0000.0001) // =======================================================
(PID.TID 0000.0001) // End MONITOR dynamic field statistics
(PID.TID 0000.0001) // =======================================================
(PID.TID 0000.0001) // =======================================================
(PID.TID 0000.0001) // Field Current uVel   at iteration         20
(PID.TID 0000.0001) // CMIN =         -1.359741657412966E-01
(PID.TID 0000.0001) // CMAX =          1.753892391828130E-01
(PID.TID 0000.0001) // CINT =          1.153197796015221E-02
(PID.TID 0000.0001) // SYMBOLS (CMIN->CMAX): -abcdefghijklmnopqrstuvwxyz+
(PID.TID 0000.0001) //                  0.0: .
(PID.TID 0000.0001) // RANGE I (Lo:Hi:Step):(     1:    90:     1)
(PID.TID 0000.0001) // RANGE J (Lo:Hi:Step):(    40:     1:    -1)
(PID.TID 0000.0001) // RANGE K (Lo:Hi:Step):(   1:   1:   1)
(PID.TID 0000.0001) // =======================================================
(PID.TID 0000.0001) K =   1
(PID.TID 0000.0001)                I=10      I=20      I=30      I=40      I=50      I=60      I=70      I=80      I=90
(PID.TID 0000.0001) |--J--|123456789|123456789|123456789|123456789|123456789|123456789|123456789|123456789|123456789|
(PID.TID 0000.0001)     40 kllkl..llllllllllll...................................................................kkkk
(PID.TID 0000.0001)     39 lmmmmmllllllml....l......................................................lll.........jjjjk
(PID.TID 0000.0001)     38 mmnmllkklllll............................................................lkkl.......jjkkll
(PID.TID 0000.0001)     37 mmm...................................................................l....kk....llkk..lmm
(PID.TID 0000.0001)     36 mm..........................................lll.....................llllkkkjjj..kkllmmmmmm
(PID.TID 0000.0001)     35 ll..................................kkl...lkkkll....llmn............kk.....kjkkkkmnnnmmnml
(PID.TID 0000.0001)     34 ....................................jjk..lkjjkkl..kjkmopo...................lklnopqqqpon..
(PID.TID 0000.0001)     33 .....................................jjjjjjjklmmmmmnopqqqom..................moprssssqnll.
(PID.TID 0000.0001)     32 .....................................jijkkllmoonoppqrssssqo.................oqrttssrpnlkl.
(PID.TID 0000.0001)     31 .....................................mnoooopppqpqssstuuttqo...............mtwwxxusrqommm..
(PID.TID 0000.0001)     30 ....................................rtuuttutssstuuuuuuutspn.............mruxwvvutsqponmm..
(PID.TID 0000.0001)     29 ..................................osvvvwwwxwwvuuuuuttttrponm............rtsrqppoooonmllm..
(PID.TID 0000.0001)     28 ................................loprrrrstttttttsrrrsssqpnmmml..........ooonnmmmllkkkkjkl..
(PID.TID 0000.0001)     27 ...............l...............kkkkklllnopqpppppooopqpnnlkkkkl....kkl..noonmnmmkjijjii....
(PID.TID 0000.0001)     26 ...............lk............hdfffggghhkllmmlllllkkllkkkjiiijkml..kjijklmmlmlkkjihihgg....
(PID.TID 0000.0001)     25 ...............jih....ll....hccdcabceeefffggghhggffggfffeefghjkll....ihhkjiihgggggffee....
(PID.TID 0000.0001)     24 .............ighhhi..ihl....fg..fa-bccbaabdddeffffeeedcddbdefghijjij..hgfifffffeefffgh....
(PID.TID 0000.0001)     23 .............hefffh..igj....eh...fefeedcddeffghhijhijihiiggghihiiiggh.....ghgggeeghikl....
(PID.TID 0000.0001)     22 m............gffeegjjjjj....i..nlljjihihhghiijijkkkkllklkijjklllkkiijm.......igfgijjkmkllm
(PID.TID 0000.0001)     21 kik.........hhihhhijkklkk......mnnljkkkkiijjkkjikkkkkmjklkjijmllkkjjkm.........hhjkjjkklmm
(PID.TID 0000.0001)     20 jik........kkklmkjjkmmmkk.........lklmlkjkkklkkjllkjlljklkjhkmlkjjijkm..........iijjjjkklm
(PID.TID 0000.0001)     19 jhi........mmmnqliijklkkjil....mm......llllmmlllmmkklkkllkiikkjiiihhjl............ijiikklm
(PID.TID 0000.0001)     18 ihj........nkjkmhffghgiiihjklnnmm....lnllmmnnmmmlmkkllllkihiihhhihggill...........jjijljij
(PID.TID 0000.0001)     17 hhj..........gffdecdfghhhijklmm......klkkkklkkjkkkkkkklkjhhhhgggggegilk..........lkiiikhfg
(PID.TID 0000.0001)     16 fgh.......l..ihhhfdegkjihiklml........kklllkjjkkkkkklllkihhihhhihgghijjl.........lkjhhhgff
(PID.TID 0000.0001)     15 fffh.....lj..mmnnlmkjnmjijkkm..........llmmllmnmmmmnnnmlkjjkiijkkihhihghj.......mmmljjihhg
(PID.TID 0000.0001)     14 hfee.....jhjmopqqoqpoplkkjjij..........nlmnooppopppqrqpoponnlkmmljjjjihgj......mnonnmmkiii
(PID.TID 0000.0001)     13 kigf.....nlmoonnnnnqpmkmmljhg..........oooopqqqppqqqrrrrssrrqpoommmmlkkik.....lnnoooonnnll
(PID.TID 0000.0001)     12 onljjlhnpsqponllmmmnnnnoomkjjkklkk.....pqqpoooooopppoppqrrrrtsqoooopnmlj......oppqpqqqrqqp
(PID.TID 0000.0001)     11 rqpooqptwyxvttqpqrrqpqrrqpoooonnnll...oppon..oonnmnnnnnnnoppqqqpoopqpnlk.....ppsstsstsssrr
(PID.TID 0000.0001)     10 ssrrsvvwwxzxx+zxxxxwuttttssrqqpoonll..pppom..pommlllmnnmllmooopqpooppomm...mnrqqsuuuuutuut
(PID.TID 0000.0001)      9 utsttvvvutuutvxxvvwvvutsttttstsrqqpnnopooo..noonnmmmmnoponmmnnopooonnnnm..mnorrrrstuuuttvv
(PID.TID 0000.0001)      8 tsstttttrqrsrqqqqrrrsutrrrssstttttututsrqpoonopppqqqqqqqrrqoopppononnnnm..mmmnpppqrsssqprs
(PID.TID 0000.0001)      7 ppppppppqpoopponnopooqqqqpppqqrsssrruvvttrqoooppoprstuusrrrooppqpopppoopnmnonnnoooopqponno
(PID.TID 0000.0001)      6 mmmmmmmnooonnnnnnnmmmmnnnooooppppqpnoqrrssrpoopooooopqsrrrqoopqqqppqqppppoopoooonnmnnonmmm
(PID.TID 0000.0001)      5 lllmmmnmmmnnmmmmmmmllllmmmnnnnnnnnnmmmnopqrrqponnnnmmmnooppoooppppppppppoonnponmmmmmmmmmml
(PID.TID 0000.0001)      4 llllllmmmlmmlmmmmllllllmllmmmmmmmllmmmllmmnoonnmlllllmmmnnnnnnooonnnnnnmmm...lllllllllllll
(PID.TID 0000.0001)      3 llllllllll.............................llllllmmllkkklllllllmmmmmmmmmmllll...llllllllllllll
(PID.TID 0000.0001)      2 ...........................................lllllllllllllllllllll...lll......lllllllllll...
(PID.TID 0000.0001)      1 ..........................................................................................
(PID.TID 0000.0001) // =======================================================
(PID.TID 0000.0001) // END OF FIELD                                          =
(PID.TID 0000.0001) // =======================================================
(PID.TID 0000.0001) 
(PID.TID 0000.0001) // =======================================================
(PID.TID 0000.0001) // Field Current vVel   at iteration         20
(PID.TID 0000.0001) // CMIN =         -1.131674704504425E-01
(PID.TID 0000.0001) // CMAX =          1.451542351414289E-01
(PID.TID 0000.0001) // CINT =          9.567470577476721E-03
(PID.TID 0000.0001) // SYMBOLS (CMIN->CMAX): -abcdefghijklmnopqrstuvwxyz+
(PID.TID 0000.0001) //                  0.0: .
(PID.TID 0000.0001) // RANGE I (Lo:Hi:Step):(     1:    90:     1)
(PID.TID 0000.0001) // RANGE J (Lo:Hi:Step):(    40:     1:    -1)
(PID.TID 0000.0001) // RANGE K (Lo:Hi:Step):(   1:   1:   1)
(PID.TID 0000.0001) // =======================================================
(PID.TID 0000.0001) K =   1
(PID.TID 0000.0001)                I=10      I=20      I=30      I=40      I=50      I=60      I=70      I=80      I=90
(PID.TID 0000.0001) |--J--|123456789|123456789|123456789|123456789|123456789|123456789|123456789|123456789|123456789|
(PID.TID 0000.0001)     40 klnoo.lkllllll...ll..................................................................kkllk
(PID.TID 0000.0001)     39 kklmmllkkkkll...........................................................llll........jkllll
(PID.TID 0000.0001)     38 lll.......................................................................lll......lk.mmll
(PID.TID 0000.0001)     37 kl...................................................................lk...kml...llmml.lkjj
(PID.TID 0000.0001)     36 kl.........................................opom....................llk....jkll.jijkjjhgijj
(PID.TID 0000.0001)     35 ...................................llmm..mnnoonm...klmnn...................igghhhhhhgghk..
(PID.TID 0000.0001)     34 ....................................kkl.mnmmnnml.kiiijlmm...................geefddeeedgi..
(PID.TID 0000.0001)     33 ....................................kiijkkjjjkjihggffghiikk.................hfffcabddddgj.
(PID.TID 0000.0001)     32 ....................................khfefghgghgfffeeefggghj................okgffecdeeefh..
(PID.TID 0000.0001)     31 ....................................ifddcddeefeddedefghihgi..............jigdccdedefffhj..
(PID.TID 0000.0001)     30 ...................................ifdbabba-acccdddfghiihgh............kgghhgfffghhiiijk..
(PID.TID 0000.0001)     29 .................................kkjgebacdcbceeefffhjjkkjigh...........kjjiihghiiiijkkll..
(PID.TID 0000.0001)     28 ...............................mlkjkjigfhhhghhhhjkjklmmllkihi.........lklkkllklmnmmmml....
(PID.TID 0000.0001)     27 ..............lk..............mnnmmmmlllmmlkkjjklmlmmnnnmlkjij...llor.mmmnnmmmnnoonnnl....
(PID.TID 0000.0001)     26 ..............lll...........jnqpmlmmkkmnnmmllkkkklkklmmlmljklllm....qpomlnmnnmmnpommlj....
(PID.TID 0000.0001)     25 ..............mloo...kkk...kln.lgghhhijkkkjiihhijiihhhhhghiklllml....lkikijlkkkmnmkjig....
(PID.TID 0000.0001)     24 ............mlmoqrp.lkkj...iln..accceeghhghggghjkkjihgffhijjjiigggjl.....fiiiikmnkjihk....
(PID.TID 0000.0001)     23 ............kllmmmj.jigg...jm...fghiijjkkkklmmopqqqpqqrrssrqonljklmmm.......kmpqommnpr....
(PID.TID 0000.0001)     22 n...........ikkkjgedcegj......mmlmnnommllklmllnooppqqqrsqnnoommmnonlji........mmmmnoqronll
(PID.TID 0000.0001)     21 jih........iikjgfgghhilmm......l.lllmmmmmklllnnnmmnnnoooonnnljjkklllkj.........jjmnnmmmlkj
(PID.TID 0000.0001)     20 iik.......kjiiieegjlmnonl......k......onllkkkllklmnoopppppponooonnnopo...........opoonmmlj
(PID.TID 0000.0001)     19 kjj.......pprrsqomnpqsrpmkl...kkk.....onmlkjjiiikkkmoonnoppopqqpnmlnom...........nmmlkjlnm
(PID.TID 0000.0001)     18 nlk.......o.wwxywrooppqpnmllklm.....klnmmmmmlkkklkjjlnmmmmnopqqqpnlmppl..........nnnnnmmop
(PID.TID 0000.0001)     17 qon.......m.trrrqnmmljklkkklll.......llklllmmmkklkjijlllllmnooooonllopn.........ijlmoqrppq
(PID.TID 0000.0001)     16 qqp......om.kmkjkfbghffijkkkk.........ljiiiiijjiihhhikjiikmlllmollllnpqo........ijkknpqpop
(PID.TID 0000.0001)     15 oqro....lpo.gihhidelkddfhllki.........kjhggefghgfffgghhggijiimnmlkllmprrn......jhjkjkmnooo
(PID.TID 0000.0001)     14 oppo....ijljiiihheimlhgimmmll.........ijjihgghhgggggfghghiihjonllklmmnqqm.....kjijljillnpo
(PID.TID 0000.0001)     13 ppon....fimmjjkkljklkjjmonlkk.........klklljijiiijihghjjiijjmollnmmnnmpo.....klkjlmklmmopp
(PID.TID 0000.0001)     12 rqomjghlklonlknooonnnnoqqponmllllm....mnmnm.kllmnmkkjkkllllmnmkmqqonnnom.....mnllnonnnnpqr
(PID.TID 0000.0001)     11 ttrpopqpppqsqpsuvvvutsttstsrpopoonn..mnooom.klmoonmmmmmnpppqqnmostsqppom....jnqqqqqqqrqqrs
(PID.TID 0000.0001)     10 uutttttrqooqqswy+zxvvvvvvvutsqqpomop.moppo..kkmnnoooponoqrstrppruvtrqpon..nklpssssttstutst
(PID.TID 0000.0001)      9 uvvxxwvtsqoqssuvuutstvvwvuuutrssrqtuqopqpo.onnnoqqqqqqqrtuvusrqrtutrrqnn.oppprtvwwwutvwutt
(PID.TID 0000.0001)      8 stuuutssrqqrrrrqpssssstuttssrrrsrsvwtsrrpopqppqsuvuvvtsuvuuusrqrssssrqom.qrrrssttttsstusqq
(PID.TID 0000.0001)      7 pppooooooonnoooooprqonopppooopqqrrssppponoprrqrtuututrqrqpqqppopqrrrrrqqrrrstsqppppooqrqpp
(PID.TID 0000.0001)      6 mlkkkllmmmmnnmmmnonnmmnnmllmooooonoomnnmlmoqqqrtsrrrpmlllmnpponoqqrqqrssttsrponnnnnmnoponm
(PID.TID 0000.0001)      5 kkjjjkkllkkkkkkklmllkkkjjijklllllllmmmllllnoooqqponmljjjklnoonmnoopppqqpoo..klmlllllllllkk
(PID.TID 0000.0001)      4 jiiiiiijjj............................kkkkllkllmlkkkjjjkllmmmmmmmmmmmmmlk...lllkkkkkkkjjjj
(PID.TID 0000.0001)      3 ..........................................lkkkkkkkjjiiiklllllkkk..kkkk.....lllkkkkkkkkk...
(PID.TID 0000.0001)      2 ..........................................................................................
(PID.TID 0000.0001)      1 ..........................................................................................
(PID.TID 0000.0001) // =======================================================
(PID.TID 0000.0001) // END OF FIELD                                          =
(PID.TID 0000.0001) // =======================================================
(PID.TID 0000.0001) 
(PID.TID 0000.0001) // =======================================================
(PID.TID 0000.0001) // Field Current theta  at iteration         20
(PID.TID 0000.0001) // CMIN =         -2.017886119116299E+00
(PID.TID 0000.0001) // CMAX =          2.985294168994222E+01
(PID.TID 0000.0001) // CINT =          1.180401029965130E+00
(PID.TID 0000.0001) // SYMBOLS (CMIN->CMAX): -abcdefghijklmnopqrstuvwxyz+
(PID.TID 0000.0001) //                  0.0: .
(PID.TID 0000.0001) // RANGE I (Lo:Hi:Step):(     1:    90:     1)
(PID.TID 0000.0001) // RANGE J (Lo:Hi:Step):(    40:     1:    -1)
(PID.TID 0000.0001) // RANGE K (Lo:Hi:Step):(   1:   1:   1)
(PID.TID 0000.0001) // =======================================================
(PID.TID 0000.0001) K =   1
(PID.TID 0000.0001)                I=10      I=20      I=30      I=40      I=50      I=60      I=70      I=80      I=90
(PID.TID 0000.0001) |--J--|123456789|123456789|123456789|123456789|123456789|123456789|123456789|123456789|123456789|
(PID.TID 0000.0001)     40 aabcdbaa-----abcdddbbbbbbbbbbbbbbbbbbbbbbbbbbbbbbbbbbbbbbbbbbbbbbbbbbbbbbbbbbbbbbbbbbbbaaa
(PID.TID 0000.0001)     39 bccddccbba----bbbedbbbbbbbbbbbbbbbbbbbbbbbbbbbbbbbbbbbbbbbbbbbbbbbbbbbbb----bbbbbbbbbbaaab
(PID.TID 0000.0001)     38 effeedcdddbbbbbbbbbbbbbbbbbbbbbbbbbbbbbbbbbbbbbbbbbbbbbbbbbbbbbbbbbbbbbb-----bbbbbbcaaabdd
(PID.TID 0000.0001)     37 gghbbbbbbbbbbbbbbbbbbbbbbbbbbbbbbbbbbbbbbbbbbbbbbbbbbbbbbbbbbbbbbbbbbbcbbbbabbbbdccdfbdeef
(PID.TID 0000.0001)     36 hhbbbbbbbbbbbbbbbbbbbbbbbbbbbbbbbbbbbbbbbbbcbaabbbbbbbbbbbbbbbbbbbbdcccbbbbccdbddfgghhhhhh
(PID.TID 0000.0001)     35 ggbbbbbbbbbbbbbbbbbbbbbbbbbbbbbbbbba--abbbccdccbbbbeeffgbbbbbbbbbbbbbbbbbbcceeeeefghiijiih
(PID.TID 0000.0001)     34 bbbbbbbbbbbbbbbbbbbbbbbbbbbbbbbbbbb---abcdddddddbeeeffgggbbbbbbbbbbbbbbbbbbcbceffghijjjjbb
(PID.TID 0000.0001)     33 bbbbbbbbbbbbbbbbbbbbbbbbbbbbbbbbbbbb-abbccdeedeeeffffggghhibbbbbbbbbbbbbbbbbbbehjjkkkkkkkb
(PID.TID 0000.0001)     32 bbbbbbbbbbbbbbbbbbbbbbbbbbbbbbbbbbbbabccdeeffffgghhhhhhiiijbbbbbbbbbbbbbbbbccbeklmmmmlllkb
(PID.TID 0000.0001)     31 bbbbbbbbbbbbbbbbbbbbbbbbbbbbbbbbbbbbefghhhiiiiijjjjjkkkklkkbbbbbbbbbbbbbbhilkilnoonnnmmmbb
(PID.TID 0000.0001)     30 bbbbbbbbbbbbbbbbbbbbbbbbbbbbbbbbbbbmllmllmmmmlllllmmmnnnnmlbbbbbbbbbbbblnpqqqqqqppppooonbb
(PID.TID 0000.0001)     29 bbbbbbbbbbbbbbbbbbbbbbbbbbbbbbbbbppppppoopooooooooooopppoonmbbbbbbbbbbbrrrrrrrrqqqqqppppbb
(PID.TID 0000.0001)     28 bbbbbbbbbbbbbbbbbbbbbbbbbbbbbbboqrqrrqqqrrrrrrrqqrrqrrrqqpooobbbbbbbbbtsssssssrrrrrrqqqpbb
(PID.TID 0000.0001)     27 bbbbbbbbbbbbbbvvbbbbbbbbbbbbbbrsssstttttttttttttttttttssrrqqpqbbbsstubuuuuuuuuttttsssrbbbb
(PID.TID 0000.0001)     26 bbbbbbbbbbbbbbvuubbbbbbbbbbbutuuuuuvvvvvvvvvvvvuvvvuutttssrrrstubtuvwwvvvvvvvvvuuttsrrbbbb
(PID.TID 0000.0001)     25 bbbbbbbbbbbbbbvvvwbbbwwxbbbuuvwwwwwxxxxxxwwwwwwvwvvvuuuuuttttuvwwbbbxwwwwwwvvvvvvutsrqbbbb
(PID.TID 0000.0001)     24 bbbbbbbbbbbbwwwwxyybwwxxbbbwwwbxxxyyyxxxxxxwwwwwwwwvvvvvvvvvvwwxxwvvbxwwwwwwwwwvvvuutrbbbb
(PID.TID 0000.0001)     23 bbbbbbbbbbbbxwxxxyzbxxyybbbxxxbbyyyyyyyyxxxxxxxxxxxxxxxxwwwxxxxwwwwwwbbbbwwxxxwwwwwvvubbbb
(PID.TID 0000.0001)     22 wbbbbbbbbbbbxxyyyyyyyyyybbbxxbyyzzzzzzzzzzzzyyyyyyyyyyxwwwwxxxxwwwwwxwbbbbbbyxxxxxxxxxxxxw
(PID.TID 0000.0001)     21 xwxbbbbbbbbxxxxyyzzyzzz++bbbbbzyzzzzzzz++zzzyyyyyyyyyyxxwwwwwwvvvvvvvvbbbbbbbbyyyyyyyyyyxx
(PID.TID 0000.0001)     20 xwwbbbbbbbyyyyyyyzzzzzzz+bbbbbbzbzzzzz++++zzzzzzzyyyyyxxxwwxwwvvvvvvvubbbbbbbbbyyyyyyyyxwx
(PID.TID 0000.0001)     19 wvvbbbbbbbyzzyyxxyyzzzzzzzzbbbzzzbbbbb++++++z++z+zzzyyyyxxxxxwwwwwwwvvbbbbbbbbbbbyyyxxwwwx
(PID.TID 0000.0001)     18 vutbbbbbbbzzzyyyxyyzyyzzzzzzzz+zzbbb+++++++++++++++zzzzyyyyxxwwwvvwvvuubbbbbbbbbbyyxxwvvww
(PID.TID 0000.0001)     17 uutbbbbbbbzbzyyyyyyyyyyyyyyyyzzbbbbbzzzzzzzzzzzzzzzzzzyyyyyxxwwvvuvuuuubbbbbbbbbyyyyxwuuvu
(PID.TID 0000.0001)     16 utsbbbbbbzybzyyyyxxxxxxxwxxxxybbbbbbbyyyyyyyyyyzyyyyyyyyyyyyyxwwvvvuutttbbbbbbbbyyyyxwvuvu
(PID.TID 0000.0001)     15 utsrbbbbxyybxxxxxwwwwwwwvvwwwbbbbbbbbbxxxxxxxxxxxxxxyyxxxyyyxwwwvvuuutsssbbbbbbxxxxxxxwwvu
(PID.TID 0000.0001)     14 utsqbbbbxyxxxxwwwxwvvuuuuuuuubbbbbbbbbwwwwwwwwwwwwwwwwwwxxxxxwwwvvuutsssrbbbbbvwxwwwxwwwvu
(PID.TID 0000.0001)     13 tttsbbbbwxwvwvuuuvvvuuutsttttbbbbbbbbbvvvvvvvvvuuuuuuvvvvvwwwwvvvuuutsssqbbbbvwwwvvvwwvvvu
(PID.TID 0000.0001)     12 sstsststuuttttssssssstsrrrsssqqrrqbbbbuvutttttssssssssssstuuuttttsstssrqbbbbbuvvutttuutttt
(PID.TID 0000.0001)     11 qpqrssssrrrrrrrqqppoprqppqpppqqqpqqbbtttsssbrrqqqrrrrqqqqrrrqqqrrqrrrrqpbbbbprtssrrrrqqqqq
(PID.TID 0000.0001)     10 mmlnopppooooooooonnnnnnmmmmlmnnnoooobqrrqqqbpqqppqpoppppppponoooooooppoobbonopppooooooonnm
(PID.TID 0000.0001)      9 jiiijjjjiijjijjjjijjjjiiiijiijkklmnmmnoooobnnnnoooonnnnnnnmmllmmmmllmmmmbmmmnnmmllkjkkkjij
(PID.TID 0000.0001)      8 ffffffggffgghhgggfgghhgggghhhiijjjkkjklllllllllllllmmllllkkjjjkkkkjjkkljbkkkkjjiihhgggffef
(PID.TID 0000.0001)      7 ddddeeeffeeefgeeeeeeeeeeeffffggghgghhhijjjjjjjkkjiiihhiiiiiihhiiiiiiiiiiijjiihggfeeeeedddd
(PID.TID 0000.0001)      6 cccddddeeddddeedeeddeeeeeeeddeeeeeeffffghhhhhhiihffeeefefgfffffghhhhhhhhhhgggfeeddcccccccc
(PID.TID 0000.0001)      5 cccdddddddddddddddddddddccddddeeeeeeeeeeefffeeefedccccccddddddeeeeffffeeefeeddcccccccbcbbc
(PID.TID 0000.0001)      4 cccdcccbbccbbccccccccbbbbbbbccccccbbcccccccccccccccccccccccccccccccddcccccbbbaabbbcccbbbcc
(PID.TID 0000.0001)      3 bbbbbaaaaabbbbbbbbbbbbbbbbbbbbbbbbbbbbbbbbbbbbbbbbbbbbbbbaaaabbbbbbbbbbbbbbaaaaaabbcccbbbb
(PID.TID 0000.0001)      2 bbbbbbbbbbbbbbbbbbbbbbbbbbbbbbbbbbbbbbbbbbbbbbbbbbbaaaaaaaaaaaaabbaaaabbbbbaaaaaabbbbbbbbb
(PID.TID 0000.0001)      1 bbbbbbbbbbbbbbbbbbbbbbbbbbbbbbbbbbbbbbbbbbbbbbbbbbbbbbbbbbbbbbbbbbbbbbbbbbbbbbbbbbbbbbbbbb
(PID.TID 0000.0001) // =======================================================
(PID.TID 0000.0001) // END OF FIELD                                          =
(PID.TID 0000.0001) // =======================================================
(PID.TID 0000.0001) 
(PID.TID 0000.0001) // =======================================================
(PID.TID 0000.0001) // Field Current etaN   at iteration         20
(PID.TID 0000.0001) // CMIN =         -1.620935540381922E+00
(PID.TID 0000.0001) // CMAX =          9.561662627816678E-01
(PID.TID 0000.0001) // CINT =          9.544821493198480E-02
(PID.TID 0000.0001) // SYMBOLS (CMIN->CMAX): -abcdefghijklmnopqrstuvwxyz+
(PID.TID 0000.0001) //                  0.0: .
(PID.TID 0000.0001) // RANGE I (Lo:Hi:Step):(    -1:    92:     1)
(PID.TID 0000.0001) // RANGE J (Lo:Hi:Step):(    42:    -1:    -1)
(PID.TID 0000.0001) // RANGE K (Lo:Hi:Step):(   1:   1:   1)
(PID.TID 0000.0001) // =======================================================
(PID.TID 0000.0001) K =   1
(PID.TID 0000.0001)                I=8       I=18      I=28      I=38      I=48      I=58      I=68      I=78      I=88
(PID.TID 0000.0001) |--J--|101234567|901234567|901234567|901234567|901234567|901234567|901234567|901234567|901234567|9012
(PID.TID 0000.0001)     42 ............................................bccccccddddeeeedddccdd..dddd.....-----aaaaaaa.....
(PID.TID 0000.0001)     41 ..............................................................................................
(PID.TID 0000.0001)     40 ggggggh.ihhhhhggggggg..................................................................hhhgggg
(PID.TID 0000.0001)     39 gggggghhhhhggggg...gg.....................................................ffff........hhhggggg
(PID.TID 0000.0001)     38 ghhhhhhhhhhhhhh...........................................................fffff......ihgggghhh
(PID.TID 0000.0001)     37 hhhii..................................................................jj...fff...hgggg.hhhhhi
(PID.TID 0000.0001)     36 iiij.........................................oppp....................jjjkjihgfgf.gfffgghhhiiij
(PID.TID 0000.0001)     35 iijj.................................onnn..ooooppp...qqqqq...........jkk....gfeeeeeefgghhhiijj
(PID.TID 0000.0001)     34 .....................................onno.opoooooo.qppopprs..................ggfeeeffghiik....
(PID.TID 0000.0001)     33 k.....................................ooooooooooppppppppqqrrs.................ggfghhhijjjkk...
(PID.TID 0000.0001)     32 k.....................................ppooooppppqqqqqqqqrrrrr................fhhhijjjkkkkjk...
(PID.TID 0000.0001)     31 ......................................oppppppqqrrrrrrrrssssss..............jjkkkkkkkkkkkkj....
(PID.TID 0000.0001)     30 .....................................rrrsrrrsrrssssssssttttts............jklmnnnnnmmmlllkk....
(PID.TID 0000.0001)     29 ...................................uvuvvvuuuuuuuuuuuuttuuuutts...........nnooooonnnnmmllll....
(PID.TID 0000.0001)     28 .................................wxxxxxxxwwwwwvvvvvvuuuuuuuutts.........ppoooooonnnnmmmlll....
(PID.TID 0000.0001)     27 ................rr..............zyyyyyyyyxxxxxwwwvvvvvvvuuuuttss...pppp.qqppppoonnnnmmml......
(PID.TID 0000.0001)     26 ................rrr...........zyyyyyyyyyyyyyyxxxwwwwwvvvvuuutttsst.pppqrrrqqpppoonnnnmml......
(PID.TID 0000.0001)     25 ................ssst...vvv...zyyyzyyyyyyyyyyyxxxwwwwwvvvuuuuttttttt...rrrrrqqppoonnnmmml......
(PID.TID 0000.0001)     24 ..............sssstuv.vvvv...zyy.+yyyyxxxxxyxxxxwwwvvvvuuutttttttttttt.rrqrqpppoonnnnmml......
(PID.TID 0000.0001)     23 ..............sssttuv.vvvv...zzz..yxxxxxxxxxxxxxwwwvvvvuutttttttttttttt....opppooonnnmmn......
(PID.TID 0000.0001)     22 ooo...........sstttuuuvvvu...zz.xwxxwwwwxxxxxxxxwwwwvvvvutttttttttttttuu......popoooonnnooooo.
(PID.TID 0000.0001)     21 nooop........tssttuuuuuuuvv.....xwwwwwwwwwwxxxwwwwwwwvvvuuuttttttstttttt........pppooooooonooo
(PID.TID 0000.0001)     20 nnooo.......ttttttttuuuuuvv......x.wwwwxxxxxxxxwxxwxwwwvvvuuuuuttstssttt.........pppoooooonnoo
(PID.TID 0000.0001)     19 nnnno.......uttttsttuvvvvvvvv...xxx.....xxxxxxxxxxxxwwwwwvvvuuuttttttttt...........pppooonnnnn
(PID.TID 0000.0001)     18 nnmmn.......uuuuuttuvvvvvvvvwwwwwwx...yyyyyxxxxxxxxxxxxwwwvvvvuuuttttttss..........qppponnnnmm
(PID.TID 0000.0001)     17 nnmmm.......v.wvvvvvvwwvvvvvvvwww.....yyxxxxxxxxxxxxxxxwwwwvvvuuuttttttss.........qqqpponnnnmm
(PID.TID 0000.0001)     16 onnnm......wv.xwwwwwwwwwvvvvvvvw.......yxxxxxxxxwxxxxxwwwwwwwwvvuuuttttssr........qqqqppooonnn
(PID.TID 0000.0001)     15 poonnm....xwv.xwwwwvvvvvvvuuuuu.........xwwwwwwwwwwwwwwwwwwwwwwvvuuuuttssrr......qqqqqqqqppoon
(PID.TID 0000.0001)     14 ppponn....wwvvwwvvvvvuututtttts.........wwwvvvvvvvvvvvvvvvwwwvwvvuuuuuttssr.....rqqqqqqqqqpppo
(PID.TID 0000.0001)     13 qpppon....vwvvvvuuuuuutttttssss.........vvvvuuuuuuutttuuuuvvvvwvvuuuuutttsr....qqqqqqqqqqqqppp
(PID.TID 0000.0001)     12 qpppoooortuvuuuuutttttttttssssrrrrrr....uuuttttsssssssssttttuuuuuuuttttssr.....qqqqqppqqqqqppp
(PID.TID 0000.0001)     11 pooooooqqrrttttuuttsssssssrrrrrrrrrrr..ttssss.ssssrrrrsssssssssstuttssssrr....npopoooooooppooo
(PID.TID 0000.0001)     10 nmmmmmmnnnnoppprrrrqqqqqqqqqpppqqpqqqq.rrrsss.qrrrrrrrrrsssrrrrrsttsrrrrrr..ijmnnmmmmmmmmmnmmm
(PID.TID 0000.0001)      9 jkkkkkkjjjjjllllmmmmlmnnnnmnnnnooppqrqpqqqqr.oopqrrrrrrrrsssrqqqrrrqqqqqqr.jjjklllkjjjjjjijkkk
(PID.TID 0000.0001)      8 ffgggggffggghiiiiijiiijjjjjjjkkllmmnoooopppppoooppppqqqqqqqqqppppqqpppppps.kjjiiiihggfggffffgg
(PID.TID 0000.0001)      7 cdddcccdddeeefffggggffeffgggghhhiijjiiijklmnnmmmnnmlllllmmmmmmmmnnonnnnnnnmkjjihgfeedddddccddd
(PID.TID 0000.0001)      6 bbaaabbccccdddddeeeeddddeeeefffffffffeefghikkkkjjjihhggghiijkkkkklllllllkkjihgfeddcccccccbbbaa
(PID.TID 0000.0001)      5 aaaaaabbbcbbbccccdddccccccccdddddddddedddeefgggggffeedddefghhhhhhiihhhhhggfedcbbbaaaaaaaaaaaaa
(PID.TID 0000.0001)      4 aaaaaaaabbbbbcccccccccccccccccccccdcccccccddddddddccccddeeeffffffffffeeeedde..-----aaaa---aaaa
(PID.TID 0000.0001)      3 aaaabbbbbbbb............................ccccccccccccccdddeeddddddddddddddee..------aaaaaaaaaaa
(PID.TID 0000.0001)      2 ............................................bccccccddddeeeedddccdd..dddd.....-----aaaaaaa.....
(PID.TID 0000.0001)      1 ..............................................................................................
(PID.TID 0000.0001)      0 ggggggh.ihhhhhggggggg..................................................................hhhgggg
(PID.TID 0000.0001)     -1 gggggghhhhhggggg...gg.....................................................ffff........hhhggggg
(PID.TID 0000.0001) // =======================================================
(PID.TID 0000.0001) // END OF FIELD                                          =
(PID.TID 0000.0001) // =======================================================
(PID.TID 0000.0001) 
(PID.TID 0000.0001)  MDS_WRITE_FIELD: it,rec,kS,kL,kH=      20     1  15   1  15 file=U.0000000020
(PID.TID 0000.0001)  MDS_WRITE_FIELD: it,rec,kS,kL,kH=      20     1  15   1  15 file=V.0000000020
(PID.TID 0000.0001)  MDS_WRITE_FIELD: it,rec,kS,kL,kH=      20     1  15   1  15 file=T.0000000020
(PID.TID 0000.0001)  MDS_WRITE_FIELD: it,rec,kS,kL,kH=      20     1  15   1  15 file=S.0000000020
(PID.TID 0000.0001)  MDS_WRITE_FIELD: it,rec,kS,kL,kH=      20     1   1   1   1 file=Eta.0000000020
(PID.TID 0000.0001)  MDS_WRITE_FIELD: it,rec,kS,kL,kH=      20     1  15   1  15 file=W.0000000020
(PID.TID 0000.0001)  MDS_WRITE_FIELD: it,rec,kS,kL,kH=      20     1  15   1  15 file=PH.0000000020
(PID.TID 0000.0001)  MDS_WRITE_FIELD: it,rec,kS,kL,kH=      20     1   1   1   1 file=PHL.0000000020
(PID.TID 0000.0001)  MDS_WRITE_FIELD: it,rec,kS,kL,kH=      20     1   1   1   1 file=ETAtave.0000000020
(PID.TID 0000.0001)  MDS_WRITE_FIELD: it,rec,kS,kL,kH=      20     1  15   1  15 file=Ttave.0000000020
(PID.TID 0000.0001)  MDS_WRITE_FIELD: it,rec,kS,kL,kH=      20     1  15   1  15 file=Stave.0000000020
(PID.TID 0000.0001)  MDS_WRITE_FIELD: it,rec,kS,kL,kH=      20     1  15   1  15 file=uVeltave.0000000020
(PID.TID 0000.0001)  MDS_WRITE_FIELD: it,rec,kS,kL,kH=      20     1  15   1  15 file=vVeltave.0000000020
(PID.TID 0000.0001)  MDS_WRITE_FIELD: it,rec,kS,kL,kH=      20     1  15   1  15 file=wVeltave.0000000020
(PID.TID 0000.0001)  MDS_WRITE_FIELD: it,rec,kS,kL,kH=      20     1   1   1   1 file=Eta2tave.0000000020
(PID.TID 0000.0001)  MDS_WRITE_FIELD: it,rec,kS,kL,kH=      20     1  15   1  15 file=UTtave.0000000020
(PID.TID 0000.0001)  MDS_WRITE_FIELD: it,rec,kS,kL,kH=      20     1  15   1  15 file=VTtave.0000000020
(PID.TID 0000.0001)  MDS_WRITE_FIELD: it,rec,kS,kL,kH=      20     1  15   1  15 file=WTtave.0000000020
(PID.TID 0000.0001)  MDS_WRITE_FIELD: it,rec,kS,kL,kH=      20     1  15   1  15 file=UStave.0000000020
(PID.TID 0000.0001)  MDS_WRITE_FIELD: it,rec,kS,kL,kH=      20     1  15   1  15 file=VStave.0000000020
(PID.TID 0000.0001)  MDS_WRITE_FIELD: it,rec,kS,kL,kH=      20     1  15   1  15 file=WStave.0000000020
(PID.TID 0000.0001)  MDS_WRITE_FIELD: it,rec,kS,kL,kH=      20     1  15   1  15 file=TTtave.0000000020
(PID.TID 0000.0001)  MDS_WRITE_FIELD: it,rec,kS,kL,kH=      20     1  15   1  15 file=UUtave.0000000020
(PID.TID 0000.0001)  MDS_WRITE_FIELD: it,rec,kS,kL,kH=      20     1  15   1  15 file=VVtave.0000000020
(PID.TID 0000.0001)  MDS_WRITE_FIELD: it,rec,kS,kL,kH=      20     1  15   1  15 file=UVtave.0000000020
(PID.TID 0000.0001)  MDS_WRITE_FIELD: it,rec,kS,kL,kH=      20     1  15   1  15 file=Tdiftave.0000000020
(PID.TID 0000.0001)  MDS_WRITE_FIELD: it,rec,kS,kL,kH=      20     1  15   1  15 file=PhHytave.0000000020
(PID.TID 0000.0001)  MDS_WRITE_FIELD: it,rec,kS,kL,kH=      20     1   1   1   1 file=PHLtave.0000000020
(PID.TID 0000.0001)  MDS_WRITE_FIELD: it,rec,kS,kL,kH=      20     1   1   1   1 file=uFluxtave.0000000020
(PID.TID 0000.0001)  MDS_WRITE_FIELD: it,rec,kS,kL,kH=      20     1   1   1   1 file=vFluxtave.0000000020
(PID.TID 0000.0001)  MDS_WRITE_FIELD: it,rec,kS,kL,kH=      20     1   1   1   1 file=tFluxtave.0000000020
(PID.TID 0000.0001)  MDS_WRITE_FIELD: it,rec,kS,kL,kH=      20     1   1   1   1 file=sFluxtave.0000000020
(PID.TID 0000.0001)  MDS_WRITE_FIELD: it,rec,kS,kL,kH=      20     1   1   1   1 file=PHL2tave.0000000020
(PID.TID 0000.0001)  MDS_WRITE_FIELD: it,rec,kS,kL,kH=      20     1  15   1  15 file=Convtave.0000000020
(PID.TID 0000.0001) // Time-average data written, t-step        20
(PID.TID 0000.0001) 
(PID.TID 0000.0001)  MDS_WRITE_FIELD: it,rec,kS,kL,kH=      20     1  15   1  15 file=GM_Kwx-T.0000000020
(PID.TID 0000.0001)  MDS_WRITE_FIELD: it,rec,kS,kL,kH=      20     1  15   1  15 file=GM_Kwy-T.0000000020
(PID.TID 0000.0001)  MDS_WRITE_FIELD: it,rec,kS,kL,kH=      20     1  15   1  15 file=GM_Kwz-T.0000000020
(PID.TID 0000.0001)  MDS_WRITE_FIELD: it,rec,kS,kL,kH=      20     1  15   1  15 file=pickup_cd.0000000020
(PID.TID 0000.0001)  MDS_WRITE_FIELD: it,rec,kS,kL,kH=      20     2  15   1  15 file=pickup_cd.0000000020
(PID.TID 0000.0001)  MDS_WRITE_FIELD: it,rec,kS,kL,kH=      20     3  15   1  15 file=pickup_cd.0000000020
(PID.TID 0000.0001)  MDS_WRITE_FIELD: it,rec,kS,kL,kH=      20     4  15   1  15 file=pickup_cd.0000000020
(PID.TID 0000.0001)  MDS_WRITE_FIELD: it,rec,kS,kL,kH=      20    61   1   1   1 file=pickup_cd.0000000020
(PID.TID 0000.0001)  MDS_WRITE_FIELD: it,rec,kS,kL,kH=      20    -1  15   1  15 file=pickup.0000000020
(PID.TID 0000.0001)  MDS_WRITE_FIELD: it,rec,kS,kL,kH=      20    -2  15   1  15 file=pickup.0000000020
(PID.TID 0000.0001)  MDS_WRITE_FIELD: it,rec,kS,kL,kH=      20    -3  15   1  15 file=pickup.0000000020
(PID.TID 0000.0001)  MDS_WRITE_FIELD: it,rec,kS,kL,kH=      20    -4  15   1  15 file=pickup.0000000020
(PID.TID 0000.0001)  MDS_WRITE_FIELD: it,rec,kS,kL,kH=      20    -5  15   1  15 file=pickup.0000000020
(PID.TID 0000.0001)  MDS_WRITE_FIELD: it,rec,kS,kL,kH=      20    -6  15   1  15 file=pickup.0000000020
(PID.TID 0000.0001)  MDS_WRITE_FIELD: it,rec,kS,kL,kH=      20    -7  15   1  15 file=pickup.0000000020
(PID.TID 0000.0001)  MDS_WRITE_FIELD: it,rec,kS,kL,kH=      20    -8  15   1  15 file=pickup.0000000020
(PID.TID 0000.0001)  MDS_WRITE_FIELD: it,rec,kS,kL,kH=      20  -121   1   1   1 file=pickup.0000000020
(PID.TID 0000.0001)  MDS_WRITE_FIELD: it,rec,kS,kL,kH=      20  -122   1   1   1 file=pickup.0000000020
(PID.TID 0000.0001)  MDS_WRITE_FIELD: it,rec,kS,kL,kH=      20  -123   1   1   1 file=pickup.0000000020
(PID.TID 0000.0001) %CHECKPOINT        20 0000000020
(PID.TID 0000.0001)  MDS_WRITE_FIELD: it,rec,kS,kL,kH=      20     1   1   1   1 file=ETAN_forecast.0000000020
(PID.TID 0000.0001)  MDS_WRITE_FIELD: it,rec,kS,kL,kH=      20     1  15   1  15 file=THETA_forecast.0000000020
(PID.TID 0000.0001)  MDS_WRITE_FIELD: it,rec,kS,kL,kH=      20     1  15   1  15 file=SALT_forecast.0000000020
(PID.TID 0000.0001)  MDS_WRITE_FIELD: it,rec,kS,kL,kH=      20     1  15   1  15 file=UVEL_forecast.0000000020
(PID.TID 0000.0001)  MDS_WRITE_FIELD: it,rec,kS,kL,kH=      20     1  15   1  15 file=VVEL_forecast.0000000020
(PID.TID 0000.0001)  MDS_WRITE_FIELD: it,rec,kS,kL,kH=      20     1   1   1   1 file=ETAN_analysis.0000000020
(PID.TID 0000.0001)  MDS_WRITE_FIELD: it,rec,kS,kL,kH=      20     1  15   1  15 file=THETA_analysis.0000000020
(PID.TID 0000.0001)  MDS_WRITE_FIELD: it,rec,kS,kL,kH=      20     1  15   1  15 file=SALT_analysis.0000000020
(PID.TID 0000.0001)  MDS_WRITE_FIELD: it,rec,kS,kL,kH=      20     1  15   1  15 file=UVEL_analysis.0000000020
(PID.TID 0000.0001)  MDS_WRITE_FIELD: it,rec,kS,kL,kH=      20     1  15   1  15 file=VVEL_analysis.0000000020
 EXTERNAL_FIELDS_LOAD,        20 : iP,iLd,i0,i1=    1    2    1    2 ; Wght=  0.8333333333  0.1666666667
 EXTERNAL_FIELDS_LOAD: (fu0,1),fu,fv= -3.5633E-02 -1.4435E-02 -3.2100E-02 -5.0653E-02
 EXTERNAL_FIELDS_LOAD: SST,SSS,Q,E-P=  7.1005E-01  3.4666E+01  2.6156E+02  1.1093E-05
DEBUG_STATS_RL:          Uvel (THERMODYNAMICS)  min= -1.35974165741297E-01
DEBUG_STATS_RL:          Uvel (THERMODYNAMICS)  max=  1.75389239182813E-01
DEBUG_STATS_RL:          Uvel (THERMODYNAMICS) mean=  5.53614390306088E-03
DEBUG_STATS_RL:          Uvel (THERMODYNAMICS) S.D.=  2.34453777864760E-02
DEBUG_STATS_RL:          Vvel (THERMODYNAMICS)  min= -1.13167470450443E-01
DEBUG_STATS_RL:          Vvel (THERMODYNAMICS)  max=  1.45154235141429E-01
DEBUG_STATS_RL:          Vvel (THERMODYNAMICS) mean=  1.87702284656802E-03
DEBUG_STATS_RL:          Vvel (THERMODYNAMICS) S.D.=  1.62525710993235E-02
DEBUG_STATS_RL:          Wvel (THERMODYNAMICS)  min= -1.68965080624211E-04
DEBUG_STATS_RL:          Wvel (THERMODYNAMICS)  max=  1.22730881403129E-04
DEBUG_STATS_RL:          Wvel (THERMODYNAMICS) mean=  4.13046253174093E-07
DEBUG_STATS_RL:          Wvel (THERMODYNAMICS) S.D.=  1.64250204087623E-05
DEBUG_STATS_RL:         Theta (THERMODYNAMICS)  min= -2.01676573149602E+00
DEBUG_STATS_RL:         Theta (THERMODYNAMICS)  max=  2.98594805643783E+01
DEBUG_STATS_RL:         Theta (THERMODYNAMICS) mean=  3.20919939711943E+00
DEBUG_STATS_RL:         Theta (THERMODYNAMICS) S.D.=  5.85744253976574E+00
DEBUG_STATS_RL:          Salt (THERMODYNAMICS)  min= -1.04083408558608E-17
DEBUG_STATS_RL:          Salt (THERMODYNAMICS)  max=  3.74430315546225E+01
DEBUG_STATS_RL:          Salt (THERMODYNAMICS) mean=  1.88451862943090E+01
DEBUG_STATS_RL:          Salt (THERMODYNAMICS) S.D.=  1.73006678797158E+01
DEBUG_STATS_RL:         GtNm1 (THERMODYNAMICS)  min= -3.23494507144266E-06
DEBUG_STATS_RL:         GtNm1 (THERMODYNAMICS)  max=  2.59733512522175E-06
DEBUG_STATS_RL:         GtNm1 (THERMODYNAMICS) mean=  7.37212310980940E-10
DEBUG_STATS_RL:         GtNm1 (THERMODYNAMICS) S.D.=  2.33288010276279E-07
DEBUG_STATS_RL:         GsNm1 (THERMODYNAMICS)  min= -4.97308532195044E-07
DEBUG_STATS_RL:         GsNm1 (THERMODYNAMICS)  max=  3.52085487704593E-07
DEBUG_STATS_RL:         GsNm1 (THERMODYNAMICS) mean= -3.14875754292631E-10
DEBUG_STATS_RL:         GsNm1 (THERMODYNAMICS) S.D.=  2.06000767716940E-08
DEBUG_STATS_RL:                EtaN (DYNAMICS)  min= -1.62093554038192E+00
DEBUG_STATS_RL:                EtaN (DYNAMICS)  max=  9.56166262781668E-01
DEBUG_STATS_RL:                EtaN (DYNAMICS) mean= -1.68388434855579E-01
DEBUG_STATS_RL:                EtaN (DYNAMICS) S.D.=  6.61486213217882E-01
DEBUG_STATS_RL:                Uvel (DYNAMICS)  min= -1.35974165741297E-01
DEBUG_STATS_RL:                Uvel (DYNAMICS)  max=  1.75389239182813E-01
DEBUG_STATS_RL:                Uvel (DYNAMICS) mean=  5.53614390306088E-03
DEBUG_STATS_RL:                Uvel (DYNAMICS) S.D.=  2.34453777864760E-02
DEBUG_STATS_RL:                Vvel (DYNAMICS)  min= -1.13167470450443E-01
DEBUG_STATS_RL:                Vvel (DYNAMICS)  max=  1.45154235141429E-01
DEBUG_STATS_RL:                Vvel (DYNAMICS) mean=  1.87702284656802E-03
DEBUG_STATS_RL:                Vvel (DYNAMICS) S.D.=  1.62525710993235E-02
DEBUG_STATS_RL:                Wvel (DYNAMICS)  min= -1.68965080624211E-04
DEBUG_STATS_RL:                Wvel (DYNAMICS)  max=  1.22730881403129E-04
DEBUG_STATS_RL:                Wvel (DYNAMICS) mean=  4.13046253174093E-07
DEBUG_STATS_RL:                Wvel (DYNAMICS) S.D.=  1.64250204087623E-05
DEBUG_STATS_RL:               Theta (DYNAMICS)  min= -2.01676573149602E+00
DEBUG_STATS_RL:               Theta (DYNAMICS)  max=  2.98594805643783E+01
DEBUG_STATS_RL:               Theta (DYNAMICS) mean=  3.20919939711943E+00
DEBUG_STATS_RL:               Theta (DYNAMICS) S.D.=  5.85744253976574E+00
DEBUG_STATS_RL:                Salt (DYNAMICS)  min= -1.04083408558608E-17
DEBUG_STATS_RL:                Salt (DYNAMICS)  max=  3.74430315546225E+01
DEBUG_STATS_RL:                Salt (DYNAMICS) mean=  1.88451862943090E+01
DEBUG_STATS_RL:                Salt (DYNAMICS) S.D.=  1.73006678797158E+01
DEBUG_STATS_RL:                  Gu (DYNAMICS)  min= -1.42270396200486E-01
DEBUG_STATS_RL:                  Gu (DYNAMICS)  max=  1.74668003225978E-01
DEBUG_STATS_RL:                  Gu (DYNAMICS) mean=  5.00699808653405E-03
DEBUG_STATS_RL:                  Gu (DYNAMICS) S.D.=  2.27640744005565E-02
DEBUG_STATS_RL:                  Gv (DYNAMICS)  min= -1.31296601637704E-01
DEBUG_STATS_RL:                  Gv (DYNAMICS)  max=  1.70444606066007E-01
DEBUG_STATS_RL:                  Gv (DYNAMICS) mean=  4.12023223794491E-03
DEBUG_STATS_RL:                  Gv (DYNAMICS) S.D.=  1.83543794905177E-02
DEBUG_STATS_RL:               GuNm1 (DYNAMICS)  min= -7.46916403947864E-06
DEBUG_STATS_RL:               GuNm1 (DYNAMICS)  max=  7.65547770760855E-06
DEBUG_STATS_RL:               GuNm1 (DYNAMICS) mean= -1.28816634497044E-08
DEBUG_STATS_RL:               GuNm1 (DYNAMICS) S.D.=  1.14412862359368E-06
DEBUG_STATS_RL:               GvNm1 (DYNAMICS)  min= -9.39257090567597E-06
DEBUG_STATS_RL:               GvNm1 (DYNAMICS)  max=  1.70268311548352E-05
DEBUG_STATS_RL:               GvNm1 (DYNAMICS) mean=  7.70919743616152E-07
DEBUG_STATS_RL:               GvNm1 (DYNAMICS) S.D.=  2.58776635507892E-06
DEBUG_STATS_RL:               GtNm1 (DYNAMICS)  min= -3.23494507144266E-06
DEBUG_STATS_RL:               GtNm1 (DYNAMICS)  max=  2.59733512522175E-06
DEBUG_STATS_RL:               GtNm1 (DYNAMICS) mean=  7.37212310980940E-10
DEBUG_STATS_RL:               GtNm1 (DYNAMICS) S.D.=  2.33288010276279E-07
DEBUG_STATS_RL:               GsNm1 (DYNAMICS)  min= -4.97308532195044E-07
DEBUG_STATS_RL:               GsNm1 (DYNAMICS)  max=  3.52085487704593E-07
DEBUG_STATS_RL:               GsNm1 (DYNAMICS) mean= -3.14875754292631E-10
DEBUG_STATS_RL:               GsNm1 (DYNAMICS) S.D.=  2.06000767716940E-08
DEBUG_STATS_RL:    cg2d_b (SOLVE_FOR_PRESSURE)  min= -2.16627522612477E+04
DEBUG_STATS_RL:    cg2d_b (SOLVE_FOR_PRESSURE)  max=  1.55809398516918E+04
DEBUG_STATS_RL:    cg2d_b (SOLVE_FOR_PRESSURE) mean=  1.45770631620108E+00
DEBUG_STATS_RL:    cg2d_b (SOLVE_FOR_PRESSURE) S.D.=  3.39695146180647E+03
 cg2d: Sum(rhs),rhsMax =   1.55778457017382E-01  1.42286756892864E+00
(PID.TID 0000.0001)  cg2d: iter=     1 ; resid.=  1.35857003096328E-01
(PID.TID 0000.0001)  cg2d: iter=     2 ; resid.=  6.92233958150111E-02
(PID.TID 0000.0001)  cg2d: iter=     3 ; resid.=  5.32055861274662E-02
(PID.TID 0000.0001)  cg2d: iter=     4 ; resid.=  4.83023506742942E-02
(PID.TID 0000.0001)  cg2d: iter=     5 ; resid.=  4.65292954038967E-02
(PID.TID 0000.0001)  cg2d: iter=     6 ; resid.=  4.27434119384731E-02
(PID.TID 0000.0001)  cg2d: iter=     7 ; resid.=  3.90161014259435E-02
(PID.TID 0000.0001)  cg2d: iter=     8 ; resid.=  3.14657670721384E-02
(PID.TID 0000.0001)  cg2d: iter=     9 ; resid.=  2.48395985375527E-02
(PID.TID 0000.0001)  cg2d: iter=    10 ; resid.=  1.79669919990286E-02
(PID.TID 0000.0001)  cg2d: iter=    11 ; resid.=  1.33230005981282E-02
(PID.TID 0000.0001)  cg2d: iter=    12 ; resid.=  1.05358129083695E-02
(PID.TID 0000.0001)  cg2d: iter=    13 ; resid.=  9.02390353602232E-03
(PID.TID 0000.0001)  cg2d: iter=    14 ; resid.=  7.36275635912641E-03
(PID.TID 0000.0001)  cg2d: iter=    15 ; resid.=  6.23840252801472E-03
(PID.TID 0000.0001)  cg2d: iter=    16 ; resid.=  5.26253721579166E-03
(PID.TID 0000.0001)  cg2d: iter=    17 ; resid.=  4.83719383135609E-03
(PID.TID 0000.0001)  cg2d: iter=    18 ; resid.=  4.34694138357744E-03
(PID.TID 0000.0001)  cg2d: iter=    19 ; resid.=  3.68034394413359E-03
(PID.TID 0000.0001)  cg2d: iter=    20 ; resid.=  3.01321599478989E-03
(PID.TID 0000.0001)  cg2d: iter=    21 ; resid.=  2.43024258427789E-03
(PID.TID 0000.0001)  cg2d: iter=    22 ; resid.=  1.98957743831847E-03
(PID.TID 0000.0001)  cg2d: iter=    23 ; resid.=  1.61567930485958E-03
(PID.TID 0000.0001)  cg2d: iter=    24 ; resid.=  1.49489677701504E-03
(PID.TID 0000.0001)  cg2d: iter=    25 ; resid.=  1.37930397264283E-03
(PID.TID 0000.0001)  cg2d: iter=    26 ; resid.=  1.19736971642493E-03
(PID.TID 0000.0001)  cg2d: iter=    27 ; resid.=  9.82858227698769E-04
(PID.TID 0000.0001)  cg2d: iter=    28 ; resid.=  8.36494559424579E-04
(PID.TID 0000.0001)  cg2d: iter=    29 ; resid.=  6.78993806520975E-04
(PID.TID 0000.0001)  cg2d: iter=    30 ; resid.=  5.27597525392500E-04
(PID.TID 0000.0001)  cg2d: iter=    31 ; resid.=  4.25295737140694E-04
(PID.TID 0000.0001)  cg2d: iter=    32 ; resid.=  3.70369997006600E-04
(PID.TID 0000.0001)  cg2d: iter=    33 ; resid.=  3.04322034813512E-04
(PID.TID 0000.0001)  cg2d: iter=    34 ; resid.=  2.34202752284501E-04
(PID.TID 0000.0001)  cg2d: iter=    35 ; resid.=  1.85098835011213E-04
(PID.TID 0000.0001)  cg2d: iter=    36 ; resid.=  1.49492549326434E-04
(PID.TID 0000.0001)  cg2d: iter=    37 ; resid.=  1.25583462206624E-04
(PID.TID 0000.0001)  cg2d: iter=    38 ; resid.=  1.17615699320157E-04
(PID.TID 0000.0001)  cg2d: iter=    39 ; resid.=  1.08142691487238E-04
(PID.TID 0000.0001)  cg2d: iter=    40 ; resid.=  1.00664608231829E-04
(PID.TID 0000.0001)  cg2d: iter=    41 ; resid.=  8.11553315792018E-05
(PID.TID 0000.0001)  cg2d: iter=    42 ; resid.=  6.40197528209087E-05
(PID.TID 0000.0001)  cg2d: iter=    43 ; resid.=  4.94580685972538E-05
(PID.TID 0000.0001)  cg2d: iter=    44 ; resid.=  3.89598948128861E-05
(PID.TID 0000.0001)  cg2d: iter=    45 ; resid.=  2.95371861007813E-05
(PID.TID 0000.0001)  cg2d: iter=    46 ; resid.=  2.34622219677778E-05
(PID.TID 0000.0001)  cg2d: iter=    47 ; resid.=  1.84654200884171E-05
(PID.TID 0000.0001)  cg2d: iter=    48 ; resid.=  1.60552217576055E-05
(PID.TID 0000.0001)  cg2d: iter=    49 ; resid.=  1.35489064184599E-05
(PID.TID 0000.0001)  cg2d: iter=    50 ; resid.=  1.19419544015123E-05
(PID.TID 0000.0001)  cg2d: iter=    51 ; resid.=  9.90851042590772E-06
(PID.TID 0000.0001)  cg2d: iter=    52 ; resid.=  8.15073049394437E-06
(PID.TID 0000.0001)  cg2d: iter=    53 ; resid.=  6.79972222000142E-06
(PID.TID 0000.0001)  cg2d: iter=    54 ; resid.=  5.85598057733376E-06
(PID.TID 0000.0001)  cg2d: iter=    55 ; resid.=  5.29191454112271E-06
(PID.TID 0000.0001)  cg2d: iter=    56 ; resid.=  4.48483240973498E-06
(PID.TID 0000.0001)  cg2d: iter=    57 ; resid.=  3.49959991999752E-06
(PID.TID 0000.0001)  cg2d: iter=    58 ; resid.=  2.71737725415255E-06
(PID.TID 0000.0001)  cg2d: iter=    59 ; resid.=  2.13786589981147E-06
(PID.TID 0000.0001)  cg2d: iter=    60 ; resid.=  1.66505790092683E-06
(PID.TID 0000.0001)  cg2d: iter=    61 ; resid.=  1.45928711682157E-06
(PID.TID 0000.0001)  cg2d: iter=    62 ; resid.=  1.26398774274945E-06
(PID.TID 0000.0001)  cg2d: iter=    63 ; resid.=  1.05848104990856E-06
(PID.TID 0000.0001)  cg2d: iter=    64 ; resid.=  8.33954770744547E-07
(PID.TID 0000.0001)  cg2d: iter=    65 ; resid.=  6.84581440208083E-07
(PID.TID 0000.0001)  cg2d: iter=    66 ; resid.=  5.14268387054671E-07
(PID.TID 0000.0001)  cg2d: iter=    67 ; resid.=  3.75693962467823E-07
(PID.TID 0000.0001)  cg2d: iter=    68 ; resid.=  2.80305273010177E-07
(PID.TID 0000.0001)  cg2d: iter=    69 ; resid.=  2.14122550211547E-07
(PID.TID 0000.0001)  cg2d: iter=    70 ; resid.=  1.74419138145956E-07
(PID.TID 0000.0001)  cg2d: iter=    71 ; resid.=  1.56752012143392E-07
(PID.TID 0000.0001)  cg2d: iter=    72 ; resid.=  1.37161387794178E-07
(PID.TID 0000.0001)  cg2d: iter=    73 ; resid.=  1.24931397510708E-07
(PID.TID 0000.0001)  cg2d: iter=    74 ; resid.=  1.09855859060518E-07
(PID.TID 0000.0001)  cg2d: iter=    75 ; resid.=  9.50158672246390E-08
(PID.TID 0000.0001)  cg2d: iter=    76 ; resid.=  8.27319681815707E-08
(PID.TID 0000.0001)  cg2d: iter=    77 ; resid.=  7.62204321487249E-08
(PID.TID 0000.0001)  cg2d: iter=    78 ; resid.=  6.19311992449102E-08
(PID.TID 0000.0001)  cg2d: iter=    79 ; resid.=  4.74816858978709E-08
(PID.TID 0000.0001)  cg2d: iter=    80 ; resid.=  3.54205853271983E-08
(PID.TID 0000.0001)  cg2d: iter=    81 ; resid.=  2.60999313215795E-08
(PID.TID 0000.0001)  cg2d: iter=    82 ; resid.=  1.97700556166236E-08
(PID.TID 0000.0001)  cg2d: iter=    83 ; resid.=  1.58273758776770E-08
(PID.TID 0000.0001)  cg2d: iter=    84 ; resid.=  1.27973914920241E-08
(PID.TID 0000.0001)  cg2d: iter=    85 ; resid.=  1.01659754657626E-08
(PID.TID 0000.0001)  cg2d: iter=    86 ; resid.=  7.54446171269182E-09
(PID.TID 0000.0001)  cg2d: iter=    87 ; resid.=  6.15664850330278E-09
(PID.TID 0000.0001)  cg2d: iter=    88 ; resid.=  4.53958830614517E-09
(PID.TID 0000.0001)  cg2d: iter=    89 ; resid.=  3.46203409311657E-09
(PID.TID 0000.0001)  cg2d: iter=    90 ; resid.=  2.71844888387100E-09
(PID.TID 0000.0001)  cg2d: iter=    91 ; resid.=  2.24263622227762E-09
(PID.TID 0000.0001)  cg2d: iter=    92 ; resid.=  1.90985245590823E-09
(PID.TID 0000.0001)  cg2d: iter=    93 ; resid.=  1.51867950609767E-09
(PID.TID 0000.0001)  cg2d: iter=    94 ; resid.=  1.25461620129909E-09
(PID.TID 0000.0001)  cg2d: iter=    95 ; resid.=  1.07178898228817E-09
(PID.TID 0000.0001)  cg2d: iter=    96 ; resid.=  8.26375306918158E-10
(PID.TID 0000.0001)  cg2d: iter=    97 ; resid.=  5.97076614080912E-10
(PID.TID 0000.0001)  cg2d: iter=    98 ; resid.=  4.45746931452737E-10
(PID.TID 0000.0001)  cg2d: iter=    99 ; resid.=  3.66365495767087E-10
(PID.TID 0000.0001)  cg2d: iter=   100 ; resid.=  3.13686731952216E-10
(PID.TID 0000.0001)  cg2d: iter=   101 ; resid.=  2.66958771348032E-10
(PID.TID 0000.0001)  cg2d: iter=   102 ; resid.=  2.29644816894495E-10
(PID.TID 0000.0001)  cg2d: iter=   103 ; resid.=  1.99304775991286E-10
(PID.TID 0000.0001)  cg2d: iter=   104 ; resid.=  1.66168147383134E-10
(PID.TID 0000.0001)  cg2d: iter=   105 ; resid.=  1.29053985629699E-10
(PID.TID 0000.0001)  cg2d: iter=   106 ; resid.=  9.87862295525874E-11
(PID.TID 0000.0001)  cg2d: iter=   107 ; resid.=  7.63691965786506E-11
(PID.TID 0000.0001)  cg2d: iter=   108 ; resid.=  5.51687050215234E-11
(PID.TID 0000.0001)  cg2d: iter=   109 ; resid.=  4.09160558033340E-11
(PID.TID 0000.0001)  cg2d: iter=   110 ; resid.=  3.16397066424119E-11
(PID.TID 0000.0001)  cg2d: iter=   111 ; resid.=  2.54463642898976E-11
(PID.TID 0000.0001)  cg2d: iter=   112 ; resid.=  2.12644601929209E-11
(PID.TID 0000.0001)  cg2d: iter=   113 ; resid.=  1.64983262197585E-11
(PID.TID 0000.0001)  cg2d: iter=   114 ; resid.=  1.10272882464577E-11
(PID.TID 0000.0001)  cg2d: iter=   115 ; resid.=  7.83623164408964E-12
(PID.TID 0000.0001)  cg2d: iter=   116 ; resid.=  5.96907181578067E-12
(PID.TID 0000.0001)  cg2d: iter=   117 ; resid.=  4.98153661393899E-12
(PID.TID 0000.0001)  cg2d: iter=   118 ; resid.=  4.05767936376999E-12
(PID.TID 0000.0001)  cg2d: iter=   119 ; resid.=  2.98771010011474E-12
(PID.TID 0000.0001)  cg2d: iter=   120 ; resid.=  2.30627176102710E-12
(PID.TID 0000.0001)  cg2d: iter=   121 ; resid.=  1.85150965391212E-12
(PID.TID 0000.0001)  cg2d: iter=   122 ; resid.=  1.40582822222535E-12
(PID.TID 0000.0001)  cg2d: iter=   123 ; resid.=  1.11511143016928E-12
(PID.TID 0000.0001)  cg2d: iter=   124 ; resid.=  8.16246284623173E-13
(PID.TID 0000.0001)  cg2d: iter=   125 ; resid.=  5.92853294484476E-13
(PID.TID 0000.0001)  cg2d: iter=   126 ; resid.=  4.58437145726301E-13
(PID.TID 0000.0001)  cg2d: iter=   127 ; resid.=  3.58011920108986E-13
(PID.TID 0000.0001)  cg2d: iter=   128 ; resid.=  2.54974055843147E-13
(PID.TID 0000.0001)  cg2d: iter=   129 ; resid.=  1.77413833397043E-13
(PID.TID 0000.0001)  cg2d: iter=   130 ; resid.=  1.30180665424709E-13
(PID.TID 0000.0001)  cg2d: iter=   131 ; resid.=  9.63431707758213E-14
DEBUG_STATS_RL:    cg2d_x (SOLVE_FOR_PRESSURE)  min= -1.61222599105791E+01
DEBUG_STATS_RL:    cg2d_x (SOLVE_FOR_PRESSURE)  max=  9.40722893414358E+00
DEBUG_STATS_RL:    cg2d_x (SOLVE_FOR_PRESSURE) mean= -1.65441734547802E+00
DEBUG_STATS_RL:    cg2d_x (SOLVE_FOR_PRESSURE) S.D.=  6.48553056593915E+00
(PID.TID 0000.0001)      cg2d_init_res =   4.82851144213790E-01
(PID.TID 0000.0001)      cg2d_iters(min,last) =      -1     131
(PID.TID 0000.0001)      cg2d_last_res =   9.63431707758213E-14
(PID.TID 0000.0001) // =======================================================
(PID.TID 0000.0001) // Begin MONITOR dynamic field statistics
(PID.TID 0000.0001) // =======================================================
(PID.TID 0000.0001) %MON time_tsnumber                =                    21
(PID.TID 0000.0001) %MON time_secondsf                =   1.8144000000000E+06
(PID.TID 0000.0001) %MON dynstat_eta_max              =   9.5894280674252E-01
(PID.TID 0000.0001) %MON dynstat_eta_min              =  -1.6434515709051E+00
(PID.TID 0000.0001) %MON dynstat_eta_mean             =  -1.5209357913401E-03
(PID.TID 0000.0001) %MON dynstat_eta_sd               =   5.8451488025688E-01
(PID.TID 0000.0001) %MON dynstat_eta_del2             =   1.8659716524634E-03
(PID.TID 0000.0001) %MON dynstat_uvel_max             =   1.6714692648403E-01
(PID.TID 0000.0001) %MON dynstat_uvel_min             =  -1.4155453605154E-01
(PID.TID 0000.0001) %MON dynstat_uvel_mean            =   1.2218922122556E-03
(PID.TID 0000.0001) %MON dynstat_uvel_sd              =   1.3802004268641E-02
(PID.TID 0000.0001) %MON dynstat_uvel_del2            =   8.9324491484906E-05
(PID.TID 0000.0001) %MON dynstat_vvel_max             =   1.5114104942946E-01
(PID.TID 0000.0001) %MON dynstat_vvel_min             =  -1.2155331334521E-01
(PID.TID 0000.0001) %MON dynstat_vvel_mean            =   4.5761513248094E-05
(PID.TID 0000.0001) %MON dynstat_vvel_sd              =   9.7937130770728E-03
(PID.TID 0000.0001) %MON dynstat_vvel_del2            =   8.7851594311183E-05
(PID.TID 0000.0001) %MON dynstat_wvel_max             =   1.2185816643298E-04
(PID.TID 0000.0001) %MON dynstat_wvel_min             =  -1.5955014136659E-04
(PID.TID 0000.0001) %MON dynstat_wvel_mean            =  -2.4104412258033E-22
(PID.TID 0000.0001) %MON dynstat_wvel_sd              =   1.7719585170864E-05
(PID.TID 0000.0001) %MON dynstat_wvel_del2            =   2.0349061825154E-07
(PID.TID 0000.0001) %MON dynstat_theta_max            =   2.9859480564378E+01
(PID.TID 0000.0001) %MON dynstat_theta_min            =  -2.0167657314960E+00
(PID.TID 0000.0001) %MON dynstat_theta_mean           =   3.6203967435889E+00
(PID.TID 0000.0001) %MON dynstat_theta_sd             =   4.4158914487024E+00
(PID.TID 0000.0001) %MON dynstat_theta_del2           =   4.8437702821834E-03
(PID.TID 0000.0001) %MON dynstat_salt_max             =   3.7443031554622E+01
(PID.TID 0000.0001) %MON dynstat_salt_min             =   2.9780694464447E+01
(PID.TID 0000.0001) %MON dynstat_salt_mean            =   3.4717982995598E+01
(PID.TID 0000.0001) %MON dynstat_salt_sd              =   2.9622749042564E-01
(PID.TID 0000.0001) %MON dynstat_salt_del2            =   1.0104795058537E-03
(PID.TID 0000.0001) %MON dynstat_sst_max              =   2.9859480564378E+01
(PID.TID 0000.0001) %MON dynstat_sst_min              =  -2.0167657314960E+00
(PID.TID 0000.0001) %MON dynstat_sst_mean             =   1.8693150382890E+01
(PID.TID 0000.0001) %MON dynstat_sst_sd               =   9.0565575629362E+00
(PID.TID 0000.0001) %MON dynstat_sst_del2             =   2.6406514674351E-02
(PID.TID 0000.0001) %MON dynstat_sss_max              =   3.7430356210333E+01
(PID.TID 0000.0001) %MON dynstat_sss_min              =   2.9780694464447E+01
(PID.TID 0000.0001) %MON dynstat_sss_mean             =   3.4852382643636E+01
(PID.TID 0000.0001) %MON dynstat_sss_sd               =   9.7235896335848E-01
(PID.TID 0000.0001) %MON dynstat_sss_del2             =   7.9835034339246E-03
(PID.TID 0000.0001) %MON forcing_qnet_max             =   4.2501818339030E+02
(PID.TID 0000.0001) %MON forcing_qnet_min             =  -1.7882195027669E+02
(PID.TID 0000.0001) %MON forcing_qnet_mean            =  -1.6087980164027E+01
(PID.TID 0000.0001) %MON forcing_qnet_sd              =   1.0451573706380E+02
(PID.TID 0000.0001) %MON forcing_qnet_del2            =   1.0046269814196E+00
(PID.TID 0000.0001) %MON forcing_qsw_max              =   0.0000000000000E+00
(PID.TID 0000.0001) %MON forcing_qsw_min              =   0.0000000000000E+00
(PID.TID 0000.0001) %MON forcing_qsw_mean             =   0.0000000000000E+00
(PID.TID 0000.0001) %MON forcing_qsw_sd               =   0.0000000000000E+00
(PID.TID 0000.0001) %MON forcing_qsw_del2             =   0.0000000000000E+00
(PID.TID 0000.0001) %MON forcing_empmr_max            =   8.0603790308942E-05
(PID.TID 0000.0001) %MON forcing_empmr_min            =  -7.6554177515694E-05
(PID.TID 0000.0001) %MON forcing_empmr_mean           =   9.2634904841042E-07
(PID.TID 0000.0001) %MON forcing_empmr_sd             =   2.8551238028456E-05
(PID.TID 0000.0001) %MON forcing_empmr_del2           =   3.6194392674950E-07
(PID.TID 0000.0001) %MON forcing_fu_max               =   2.7779850363731E-01
(PID.TID 0000.0001) %MON forcing_fu_min               =  -1.7423425614834E-01
(PID.TID 0000.0001) %MON forcing_fu_mean              =   1.6273236229911E-02
(PID.TID 0000.0001) %MON forcing_fu_sd                =   9.0302370992227E-02
(PID.TID 0000.0001) %MON forcing_fu_del2              =   6.9156155412209E-04
(PID.TID 0000.0001) %MON forcing_fv_max               =   2.1707908560832E-01
(PID.TID 0000.0001) %MON forcing_fv_min               =  -1.7318040132523E-01
(PID.TID 0000.0001) %MON forcing_fv_mean              =  -5.5852022730810E-03
(PID.TID 0000.0001) %MON forcing_fv_sd                =   4.6781725511238E-02
(PID.TID 0000.0001) %MON forcing_fv_del2              =   4.7604155407923E-04
(PID.TID 0000.0001) %MON trAdv_CFL_u_max              =   4.5862173885902E-02
(PID.TID 0000.0001) %MON trAdv_CFL_v_max              =   2.9209066609249E-02
(PID.TID 0000.0001) %MON trAdv_CFL_w_max              =   5.6315945492168E-02
(PID.TID 0000.0001) %MON advcfl_uvel_max              =   4.3698032991854E-02
(PID.TID 0000.0001) %MON advcfl_vvel_max              =   2.9364281893141E-02
(PID.TID 0000.0001) %MON advcfl_wvel_max              =   4.8013180203640E-02
(PID.TID 0000.0001) %MON advcfl_W_hf_max              =   5.3014553141519E-02
(PID.TID 0000.0001) %MON pe_b_mean                    =   4.3719509812659E-04
(PID.TID 0000.0001) %MON ke_max                       =   1.5498192560542E-02
(PID.TID 0000.0001) %MON ke_mean                      =   1.3028541293588E-04
(PID.TID 0000.0001) %MON ke_vol                       =   1.3226782436723E+18
(PID.TID 0000.0001) %MON vort_r_min                   =  -2.5163837698377E-07
(PID.TID 0000.0001) %MON vort_r_max                   =   3.8804363571851E-07
(PID.TID 0000.0001) %MON vort_a_mean                  =  -2.5274807040599E-05
(PID.TID 0000.0001) %MON vort_a_sd                    =   7.3604507430228E-05
(PID.TID 0000.0001) %MON vort_p_mean                  =  -3.1845655349847E-05
(PID.TID 0000.0001) %MON vort_p_sd                    =   1.3162461600067E-04
(PID.TID 0000.0001) %MON surfExpan_theta_mean         =   9.5239079697565E-08
(PID.TID 0000.0001) %MON surfExpan_salt_mean          =   5.5782193878995E-08
(PID.TID 0000.0001) // =======================================================
(PID.TID 0000.0001) // End MONITOR dynamic field statistics
(PID.TID 0000.0001) // =======================================================
 EXTERNAL_FIELDS_LOAD,        21 : iP,iLd,i0,i1=    1    2    1    2 ; Wght=  0.8000000000  0.2000000000
 EXTERNAL_FIELDS_LOAD: (fu0,1),fu,fv= -3.5633E-02 -1.4435E-02 -3.1393E-02 -4.9332E-02
 EXTERNAL_FIELDS_LOAD: SST,SSS,Q,E-P=  6.6037E-01  3.4656E+01  2.6071E+02  1.0985E-05
DEBUG_STATS_RL:          Uvel (THERMODYNAMICS)  min= -1.41554536051537E-01
DEBUG_STATS_RL:          Uvel (THERMODYNAMICS)  max=  1.67146926484027E-01
DEBUG_STATS_RL:          Uvel (THERMODYNAMICS) mean=  5.08749589671621E-03
DEBUG_STATS_RL:          Uvel (THERMODYNAMICS) S.D.=  2.24188116119589E-02
DEBUG_STATS_RL:          Vvel (THERMODYNAMICS)  min= -1.21553313345211E-01
DEBUG_STATS_RL:          Vvel (THERMODYNAMICS)  max=  1.51141049429464E-01
DEBUG_STATS_RL:          Vvel (THERMODYNAMICS) mean=  1.97589595019669E-03
DEBUG_STATS_RL:          Vvel (THERMODYNAMICS) S.D.=  1.65058419949169E-02
DEBUG_STATS_RL:          Wvel (THERMODYNAMICS)  min= -1.59550141366588E-04
DEBUG_STATS_RL:          Wvel (THERMODYNAMICS)  max=  1.21858166432976E-04
DEBUG_STATS_RL:          Wvel (THERMODYNAMICS) mean=  4.53541919166574E-07
DEBUG_STATS_RL:          Wvel (THERMODYNAMICS) S.D.=  1.62458219252487E-05
DEBUG_STATS_RL:         Theta (THERMODYNAMICS)  min= -2.01535205212459E+00
DEBUG_STATS_RL:         Theta (THERMODYNAMICS)  max=  2.98673021906683E+01
DEBUG_STATS_RL:         Theta (THERMODYNAMICS) mean=  3.20913521150984E+00
DEBUG_STATS_RL:         Theta (THERMODYNAMICS) S.D.=  5.85764542660950E+00
DEBUG_STATS_RL:          Salt (THERMODYNAMICS)  min= -1.04083408558608E-17
DEBUG_STATS_RL:          Salt (THERMODYNAMICS)  max=  3.74441396164805E+01
DEBUG_STATS_RL:          Salt (THERMODYNAMICS) mean=  1.88451693338226E+01
DEBUG_STATS_RL:          Salt (THERMODYNAMICS) S.D.=  1.73006527534376E+01
DEBUG_STATS_RL:         GtNm1 (THERMODYNAMICS)  min= -3.40211074259115E-06
DEBUG_STATS_RL:         GtNm1 (THERMODYNAMICS)  max=  2.57181247610832E-06
DEBUG_STATS_RL:         GtNm1 (THERMODYNAMICS) mean= -5.27462479976672E-10
DEBUG_STATS_RL:         GtNm1 (THERMODYNAMICS) S.D.=  2.34436442057678E-07
DEBUG_STATS_RL:         GsNm1 (THERMODYNAMICS)  min= -4.96365170778713E-07
DEBUG_STATS_RL:         GsNm1 (THERMODYNAMICS)  max=  3.03256198526538E-07
DEBUG_STATS_RL:         GsNm1 (THERMODYNAMICS) mean= -4.06216682872199E-10
DEBUG_STATS_RL:         GsNm1 (THERMODYNAMICS) S.D.=  2.10377568775751E-08
DEBUG_STATS_RL:                EtaN (DYNAMICS)  min= -1.64345157090514E+00
DEBUG_STATS_RL:                EtaN (DYNAMICS)  max=  9.58942806742519E-01
DEBUG_STATS_RL:                EtaN (DYNAMICS) mean= -1.68646008713355E-01
DEBUG_STATS_RL:                EtaN (DYNAMICS) S.D.=  6.61114226905115E-01
DEBUG_STATS_RL:                Uvel (DYNAMICS)  min= -1.41554536051537E-01
DEBUG_STATS_RL:                Uvel (DYNAMICS)  max=  1.67146926484027E-01
DEBUG_STATS_RL:                Uvel (DYNAMICS) mean=  5.08749589671621E-03
DEBUG_STATS_RL:                Uvel (DYNAMICS) S.D.=  2.24188116119589E-02
DEBUG_STATS_RL:                Vvel (DYNAMICS)  min= -1.21553313345211E-01
DEBUG_STATS_RL:                Vvel (DYNAMICS)  max=  1.51141049429464E-01
DEBUG_STATS_RL:                Vvel (DYNAMICS) mean=  1.97589595019669E-03
DEBUG_STATS_RL:                Vvel (DYNAMICS) S.D.=  1.65058419949169E-02
DEBUG_STATS_RL:                Wvel (DYNAMICS)  min= -1.59550141366588E-04
DEBUG_STATS_RL:                Wvel (DYNAMICS)  max=  1.21858166432976E-04
DEBUG_STATS_RL:                Wvel (DYNAMICS) mean=  4.53541919166574E-07
DEBUG_STATS_RL:                Wvel (DYNAMICS) S.D.=  1.62458219252487E-05
DEBUG_STATS_RL:               Theta (DYNAMICS)  min= -2.01535205212459E+00
DEBUG_STATS_RL:               Theta (DYNAMICS)  max=  2.98673021906683E+01
DEBUG_STATS_RL:               Theta (DYNAMICS) mean=  3.20913521150984E+00
DEBUG_STATS_RL:               Theta (DYNAMICS) S.D.=  5.85764542660950E+00
DEBUG_STATS_RL:                Salt (DYNAMICS)  min= -1.04083408558608E-17
DEBUG_STATS_RL:                Salt (DYNAMICS)  max=  3.74441396164805E+01
DEBUG_STATS_RL:                Salt (DYNAMICS) mean=  1.88451693338226E+01
DEBUG_STATS_RL:                Salt (DYNAMICS) S.D.=  1.73006527534376E+01
DEBUG_STATS_RL:                  Gu (DYNAMICS)  min= -1.47469154272423E-01
DEBUG_STATS_RL:                  Gu (DYNAMICS)  max=  1.64343673468234E-01
DEBUG_STATS_RL:                  Gu (DYNAMICS) mean=  4.51731640489980E-03
DEBUG_STATS_RL:                  Gu (DYNAMICS) S.D.=  2.17128462396437E-02
DEBUG_STATS_RL:                  Gv (DYNAMICS)  min= -1.38121675188271E-01
DEBUG_STATS_RL:                  Gv (DYNAMICS)  max=  1.72936797545612E-01
DEBUG_STATS_RL:                  Gv (DYNAMICS) mean=  4.15530756531335E-03
DEBUG_STATS_RL:                  Gv (DYNAMICS) S.D.=  1.84968140319905E-02
DEBUG_STATS_RL:               GuNm1 (DYNAMICS)  min= -7.54697891626257E-06
DEBUG_STATS_RL:               GuNm1 (DYNAMICS)  max=  7.72366446985357E-06
DEBUG_STATS_RL:               GuNm1 (DYNAMICS) mean= -1.25828176765370E-08
DEBUG_STATS_RL:               GuNm1 (DYNAMICS) S.D.=  1.15488026787773E-06
DEBUG_STATS_RL:               GvNm1 (DYNAMICS)  min= -9.61607095589980E-06
DEBUG_STATS_RL:               GvNm1 (DYNAMICS)  max=  1.70755899271746E-05
DEBUG_STATS_RL:               GvNm1 (DYNAMICS) mean=  7.70192326512096E-07
DEBUG_STATS_RL:               GvNm1 (DYNAMICS) S.D.=  2.59688335679898E-06
DEBUG_STATS_RL:               GtNm1 (DYNAMICS)  min= -3.40211074259115E-06
DEBUG_STATS_RL:               GtNm1 (DYNAMICS)  max=  2.57181247610832E-06
DEBUG_STATS_RL:               GtNm1 (DYNAMICS) mean= -5.27462479976672E-10
DEBUG_STATS_RL:               GtNm1 (DYNAMICS) S.D.=  2.34436442057678E-07
DEBUG_STATS_RL:               GsNm1 (DYNAMICS)  min= -4.96365170778713E-07
DEBUG_STATS_RL:               GsNm1 (DYNAMICS)  max=  3.03256198526538E-07
DEBUG_STATS_RL:               GsNm1 (DYNAMICS) mean= -4.06216682872199E-10
DEBUG_STATS_RL:               GsNm1 (DYNAMICS) S.D.=  2.10377568775751E-08
DEBUG_STATS_RL:    cg2d_b (SOLVE_FOR_PRESSURE)  min= -2.22308357940202E+04
DEBUG_STATS_RL:    cg2d_b (SOLVE_FOR_PRESSURE)  max=  1.63279916007951E+04
DEBUG_STATS_RL:    cg2d_b (SOLVE_FOR_PRESSURE) mean=  1.53187610020282E+00
DEBUG_STATS_RL:    cg2d_b (SOLVE_FOR_PRESSURE) S.D.=  3.46759335160449E+03
 cg2d: Sum(rhs),rhsMax =   1.59521360547525E-01  1.46018081636259E+00
(PID.TID 0000.0001)  cg2d: iter=     1 ; resid.=  1.29358371411059E-01
(PID.TID 0000.0001)  cg2d: iter=     2 ; resid.=  6.86378414566597E-02
(PID.TID 0000.0001)  cg2d: iter=     3 ; resid.=  5.61291291319811E-02
(PID.TID 0000.0001)  cg2d: iter=     4 ; resid.=  5.44943217875245E-02
(PID.TID 0000.0001)  cg2d: iter=     5 ; resid.=  5.21226481601418E-02
(PID.TID 0000.0001)  cg2d: iter=     6 ; resid.=  4.71749022793351E-02
(PID.TID 0000.0001)  cg2d: iter=     7 ; resid.=  4.08649428899732E-02
(PID.TID 0000.0001)  cg2d: iter=     8 ; resid.=  3.19621468700866E-02
(PID.TID 0000.0001)  cg2d: iter=     9 ; resid.=  2.45208149780437E-02
(PID.TID 0000.0001)  cg2d: iter=    10 ; resid.=  1.75591687839521E-02
(PID.TID 0000.0001)  cg2d: iter=    11 ; resid.=  1.28271593666846E-02
(PID.TID 0000.0001)  cg2d: iter=    12 ; resid.=  1.02360362608682E-02
(PID.TID 0000.0001)  cg2d: iter=    13 ; resid.=  8.86914402494183E-03
(PID.TID 0000.0001)  cg2d: iter=    14 ; resid.=  7.37307269226163E-03
(PID.TID 0000.0001)  cg2d: iter=    15 ; resid.=  6.25066242380953E-03
(PID.TID 0000.0001)  cg2d: iter=    16 ; resid.=  5.00817597721260E-03
(PID.TID 0000.0001)  cg2d: iter=    17 ; resid.=  4.28443730939977E-03
(PID.TID 0000.0001)  cg2d: iter=    18 ; resid.=  3.74879612495061E-03
(PID.TID 0000.0001)  cg2d: iter=    19 ; resid.=  3.13019422362738E-03
(PID.TID 0000.0001)  cg2d: iter=    20 ; resid.=  2.50102944027183E-03
(PID.TID 0000.0001)  cg2d: iter=    21 ; resid.=  1.93654364241095E-03
(PID.TID 0000.0001)  cg2d: iter=    22 ; resid.=  1.52438707323476E-03
(PID.TID 0000.0001)  cg2d: iter=    23 ; resid.=  1.21599615763635E-03
(PID.TID 0000.0001)  cg2d: iter=    24 ; resid.=  1.12395364268162E-03
(PID.TID 0000.0001)  cg2d: iter=    25 ; resid.=  1.03285796047882E-03
(PID.TID 0000.0001)  cg2d: iter=    26 ; resid.=  8.87021283838060E-04
(PID.TID 0000.0001)  cg2d: iter=    27 ; resid.=  7.39807316438940E-04
(PID.TID 0000.0001)  cg2d: iter=    28 ; resid.=  6.52315874545774E-04
(PID.TID 0000.0001)  cg2d: iter=    29 ; resid.=  5.55918790902690E-04
(PID.TID 0000.0001)  cg2d: iter=    30 ; resid.=  4.59405450693150E-04
(PID.TID 0000.0001)  cg2d: iter=    31 ; resid.=  3.87470013640350E-04
(PID.TID 0000.0001)  cg2d: iter=    32 ; resid.=  3.41371458176554E-04
(PID.TID 0000.0001)  cg2d: iter=    33 ; resid.=  2.75847733448177E-04
(PID.TID 0000.0001)  cg2d: iter=    34 ; resid.=  2.04471096146059E-04
(PID.TID 0000.0001)  cg2d: iter=    35 ; resid.=  1.59553883618765E-04
(PID.TID 0000.0001)  cg2d: iter=    36 ; resid.=  1.30885322662270E-04
(PID.TID 0000.0001)  cg2d: iter=    37 ; resid.=  1.12998740127731E-04
(PID.TID 0000.0001)  cg2d: iter=    38 ; resid.=  1.03184300273260E-04
(PID.TID 0000.0001)  cg2d: iter=    39 ; resid.=  9.45357636008259E-05
(PID.TID 0000.0001)  cg2d: iter=    40 ; resid.=  8.85685029156924E-05
(PID.TID 0000.0001)  cg2d: iter=    41 ; resid.=  7.28708403446329E-05
(PID.TID 0000.0001)  cg2d: iter=    42 ; resid.=  5.79488114164294E-05
(PID.TID 0000.0001)  cg2d: iter=    43 ; resid.=  4.63482512923984E-05
(PID.TID 0000.0001)  cg2d: iter=    44 ; resid.=  3.74136631704813E-05
(PID.TID 0000.0001)  cg2d: iter=    45 ; resid.=  2.86362718630158E-05
(PID.TID 0000.0001)  cg2d: iter=    46 ; resid.=  2.22932021771782E-05
(PID.TID 0000.0001)  cg2d: iter=    47 ; resid.=  1.73415249025918E-05
(PID.TID 0000.0001)  cg2d: iter=    48 ; resid.=  1.50587389642538E-05
(PID.TID 0000.0001)  cg2d: iter=    49 ; resid.=  1.28898562259762E-05
(PID.TID 0000.0001)  cg2d: iter=    50 ; resid.=  1.13246048420656E-05
(PID.TID 0000.0001)  cg2d: iter=    51 ; resid.=  9.29771257766243E-06
(PID.TID 0000.0001)  cg2d: iter=    52 ; resid.=  7.56680039778641E-06
(PID.TID 0000.0001)  cg2d: iter=    53 ; resid.=  6.33401337552133E-06
(PID.TID 0000.0001)  cg2d: iter=    54 ; resid.=  5.59185880034035E-06
(PID.TID 0000.0001)  cg2d: iter=    55 ; resid.=  5.10446359974389E-06
(PID.TID 0000.0001)  cg2d: iter=    56 ; resid.=  4.31869107947859E-06
(PID.TID 0000.0001)  cg2d: iter=    57 ; resid.=  3.32363195390190E-06
(PID.TID 0000.0001)  cg2d: iter=    58 ; resid.=  2.57453088614911E-06
(PID.TID 0000.0001)  cg2d: iter=    59 ; resid.=  2.03176765139751E-06
(PID.TID 0000.0001)  cg2d: iter=    60 ; resid.=  1.61610363771223E-06
(PID.TID 0000.0001)  cg2d: iter=    61 ; resid.=  1.45472928230860E-06
(PID.TID 0000.0001)  cg2d: iter=    62 ; resid.=  1.25970642474477E-06
(PID.TID 0000.0001)  cg2d: iter=    63 ; resid.=  1.06090348755166E-06
(PID.TID 0000.0001)  cg2d: iter=    64 ; resid.=  8.19877452276457E-07
(PID.TID 0000.0001)  cg2d: iter=    65 ; resid.=  6.42006505585536E-07
(PID.TID 0000.0001)  cg2d: iter=    66 ; resid.=  4.57987962015637E-07
(PID.TID 0000.0001)  cg2d: iter=    67 ; resid.=  3.20140482207740E-07
(PID.TID 0000.0001)  cg2d: iter=    68 ; resid.=  2.33326062774624E-07
(PID.TID 0000.0001)  cg2d: iter=    69 ; resid.=  1.72356174317898E-07
(PID.TID 0000.0001)  cg2d: iter=    70 ; resid.=  1.35112663379964E-07
(PID.TID 0000.0001)  cg2d: iter=    71 ; resid.=  1.15468038723476E-07
(PID.TID 0000.0001)  cg2d: iter=    72 ; resid.=  9.77245037302829E-08
(PID.TID 0000.0001)  cg2d: iter=    73 ; resid.=  8.90667094677776E-08
(PID.TID 0000.0001)  cg2d: iter=    74 ; resid.=  7.88630850228228E-08
(PID.TID 0000.0001)  cg2d: iter=    75 ; resid.=  6.94980625396993E-08
(PID.TID 0000.0001)  cg2d: iter=    76 ; resid.=  6.19981769808837E-08
(PID.TID 0000.0001)  cg2d: iter=    77 ; resid.=  5.80504138674285E-08
(PID.TID 0000.0001)  cg2d: iter=    78 ; resid.=  4.75788358592544E-08
(PID.TID 0000.0001)  cg2d: iter=    79 ; resid.=  3.72100941387033E-08
(PID.TID 0000.0001)  cg2d: iter=    80 ; resid.=  2.84023250274298E-08
(PID.TID 0000.0001)  cg2d: iter=    81 ; resid.=  2.16408089097550E-08
(PID.TID 0000.0001)  cg2d: iter=    82 ; resid.=  1.75106128115045E-08
(PID.TID 0000.0001)  cg2d: iter=    83 ; resid.=  1.49811616231942E-08
(PID.TID 0000.0001)  cg2d: iter=    84 ; resid.=  1.26438021577740E-08
(PID.TID 0000.0001)  cg2d: iter=    85 ; resid.=  1.01905283673015E-08
(PID.TID 0000.0001)  cg2d: iter=    86 ; resid.=  7.82322648617796E-09
(PID.TID 0000.0001)  cg2d: iter=    87 ; resid.=  6.63432243558368E-09
(PID.TID 0000.0001)  cg2d: iter=    88 ; resid.=  5.11906389835336E-09
(PID.TID 0000.0001)  cg2d: iter=    89 ; resid.=  4.02422920992899E-09
(PID.TID 0000.0001)  cg2d: iter=    90 ; resid.=  3.20749854302301E-09
(PID.TID 0000.0001)  cg2d: iter=    91 ; resid.=  2.64280458614756E-09
(PID.TID 0000.0001)  cg2d: iter=    92 ; resid.=  2.18349046935061E-09
(PID.TID 0000.0001)  cg2d: iter=    93 ; resid.=  1.64520747344058E-09
(PID.TID 0000.0001)  cg2d: iter=    94 ; resid.=  1.29655099572887E-09
(PID.TID 0000.0001)  cg2d: iter=    95 ; resid.=  1.09264013371038E-09
(PID.TID 0000.0001)  cg2d: iter=    96 ; resid.=  8.57176440954906E-10
(PID.TID 0000.0001)  cg2d: iter=    97 ; resid.=  6.46972112453866E-10
(PID.TID 0000.0001)  cg2d: iter=    98 ; resid.=  5.27404843289319E-10
(PID.TID 0000.0001)  cg2d: iter=    99 ; resid.=  4.78455026799427E-10
(PID.TID 0000.0001)  cg2d: iter=   100 ; resid.=  4.28839689563726E-10
(PID.TID 0000.0001)  cg2d: iter=   101 ; resid.=  3.60731371559446E-10
(PID.TID 0000.0001)  cg2d: iter=   102 ; resid.=  2.94439698344901E-10
(PID.TID 0000.0001)  cg2d: iter=   103 ; resid.=  2.40642241284001E-10
(PID.TID 0000.0001)  cg2d: iter=   104 ; resid.=  1.87932386739958E-10
(PID.TID 0000.0001)  cg2d: iter=   105 ; resid.=  1.34732013733181E-10
(PID.TID 0000.0001)  cg2d: iter=   106 ; resid.=  9.36897337043286E-11
(PID.TID 0000.0001)  cg2d: iter=   107 ; resid.=  6.88337993480360E-11
(PID.TID 0000.0001)  cg2d: iter=   108 ; resid.=  5.00378477783100E-11
(PID.TID 0000.0001)  cg2d: iter=   109 ; resid.=  3.90708326923783E-11
(PID.TID 0000.0001)  cg2d: iter=   110 ; resid.=  3.14395082425292E-11
(PID.TID 0000.0001)  cg2d: iter=   111 ; resid.=  2.55640666053962E-11
(PID.TID 0000.0001)  cg2d: iter=   112 ; resid.=  2.15305342609715E-11
(PID.TID 0000.0001)  cg2d: iter=   113 ; resid.=  1.70515502056536E-11
(PID.TID 0000.0001)  cg2d: iter=   114 ; resid.=  1.19323200661270E-11
(PID.TID 0000.0001)  cg2d: iter=   115 ; resid.=  8.81581647082793E-12
(PID.TID 0000.0001)  cg2d: iter=   116 ; resid.=  6.87790580770524E-12
(PID.TID 0000.0001)  cg2d: iter=   117 ; resid.=  5.53533298290965E-12
(PID.TID 0000.0001)  cg2d: iter=   118 ; resid.=  4.27119290467018E-12
(PID.TID 0000.0001)  cg2d: iter=   119 ; resid.=  2.96988701776779E-12
(PID.TID 0000.0001)  cg2d: iter=   120 ; resid.=  2.19417964093680E-12
(PID.TID 0000.0001)  cg2d: iter=   121 ; resid.=  1.68047491514697E-12
(PID.TID 0000.0001)  cg2d: iter=   122 ; resid.=  1.25121241696671E-12
(PID.TID 0000.0001)  cg2d: iter=   123 ; resid.=  1.00738381491908E-12
(PID.TID 0000.0001)  cg2d: iter=   124 ; resid.=  7.71831304110172E-13
(PID.TID 0000.0001)  cg2d: iter=   125 ; resid.=  5.77863311668318E-13
(PID.TID 0000.0001)  cg2d: iter=   126 ; resid.=  4.58879212909796E-13
(PID.TID 0000.0001)  cg2d: iter=   127 ; resid.=  3.63198371575766E-13
(PID.TID 0000.0001)  cg2d: iter=   128 ; resid.=  2.55850812766078E-13
(PID.TID 0000.0001)  cg2d: iter=   129 ; resid.=  1.78874038084237E-13
(PID.TID 0000.0001)  cg2d: iter=   130 ; resid.=  1.33975114308535E-13
(PID.TID 0000.0001)  cg2d: iter=   131 ; resid.=  1.04095625391321E-13
(PID.TID 0000.0001)  cg2d: iter=   132 ; resid.=  8.58690816161063E-14
DEBUG_STATS_RL:    cg2d_x (SOLVE_FOR_PRESSURE)  min= -1.62912219457184E+01
DEBUG_STATS_RL:    cg2d_x (SOLVE_FOR_PRESSURE)  max=  9.34720274918482E+00
DEBUG_STATS_RL:    cg2d_x (SOLVE_FOR_PRESSURE) mean= -1.65353132154607E+00
DEBUG_STATS_RL:    cg2d_x (SOLVE_FOR_PRESSURE) S.D.=  6.46846575809849E+00
(PID.TID 0000.0001)      cg2d_init_res =   4.67778641496703E-01
(PID.TID 0000.0001)      cg2d_iters(min,last) =      -1     132
(PID.TID 0000.0001)      cg2d_last_res =   8.58690816161063E-14
(PID.TID 0000.0001) // =======================================================
(PID.TID 0000.0001) // Begin MONITOR dynamic field statistics
(PID.TID 0000.0001) // =======================================================
(PID.TID 0000.0001) %MON time_tsnumber                =                    22
(PID.TID 0000.0001) %MON time_secondsf                =   1.9008000000000E+06
(PID.TID 0000.0001) %MON dynstat_eta_max              =   9.5282392958055E-01
(PID.TID 0000.0001) %MON dynstat_eta_min              =  -1.6606750199509E+00
(PID.TID 0000.0001) %MON dynstat_eta_mean             =  -1.5983227641964E-03
(PID.TID 0000.0001) %MON dynstat_eta_sd               =   5.8184408914718E-01
(PID.TID 0000.0001) %MON dynstat_eta_del2             =   1.9058464902760E-03
(PID.TID 0000.0001) %MON dynstat_uvel_max             =   1.5655434098220E-01
(PID.TID 0000.0001) %MON dynstat_uvel_min             =  -1.4662931843334E-01
(PID.TID 0000.0001) %MON dynstat_uvel_mean            =   1.2549845259783E-03
(PID.TID 0000.0001) %MON dynstat_uvel_sd              =   1.3194121227883E-02
(PID.TID 0000.0001) %MON dynstat_uvel_del2            =   8.6540365862532E-05
(PID.TID 0000.0001) %MON dynstat_vvel_max             =   1.5335589559140E-01
(PID.TID 0000.0001) %MON dynstat_vvel_min             =  -1.2829350387786E-01
(PID.TID 0000.0001) %MON dynstat_vvel_mean            =   3.3875343335788E-05
(PID.TID 0000.0001) %MON dynstat_vvel_sd              =   9.8744648287472E-03
(PID.TID 0000.0001) %MON dynstat_vvel_del2            =   8.6908359039890E-05
(PID.TID 0000.0001) %MON dynstat_wvel_max             =   1.2225250964725E-04
(PID.TID 0000.0001) %MON dynstat_wvel_min             =  -1.4906941927400E-04
(PID.TID 0000.0001) %MON dynstat_wvel_mean            =   1.7567962659372E-22
(PID.TID 0000.0001) %MON dynstat_wvel_sd              =   1.7252914923902E-05
(PID.TID 0000.0001) %MON dynstat_wvel_del2            =   1.9481976123802E-07
(PID.TID 0000.0001) %MON dynstat_theta_max            =   2.9867302190668E+01
(PID.TID 0000.0001) %MON dynstat_theta_min            =  -2.0153520521246E+00
(PID.TID 0000.0001) %MON dynstat_theta_mean           =   3.6204845576584E+00
(PID.TID 0000.0001) %MON dynstat_theta_sd             =   4.4160327307558E+00
(PID.TID 0000.0001) %MON dynstat_theta_del2           =   4.8410753498902E-03
(PID.TID 0000.0001) %MON dynstat_salt_max             =   3.7444139616481E+01
(PID.TID 0000.0001) %MON dynstat_salt_min             =   2.9785243947832E+01
(PID.TID 0000.0001) %MON dynstat_salt_mean            =   3.4717982608864E+01
(PID.TID 0000.0001) %MON dynstat_salt_sd              =   2.9623047420152E-01
(PID.TID 0000.0001) %MON dynstat_salt_del2            =   1.0095290598484E-03
(PID.TID 0000.0001) %MON dynstat_sst_max              =   2.9867302190668E+01
(PID.TID 0000.0001) %MON dynstat_sst_min              =  -2.0153520521246E+00
(PID.TID 0000.0001) %MON dynstat_sst_mean             =   1.8697017378370E+01
(PID.TID 0000.0001) %MON dynstat_sst_sd               =   9.0577647542235E+00
(PID.TID 0000.0001) %MON dynstat_sst_del2             =   2.6418662523508E-02
(PID.TID 0000.0001) %MON dynstat_sss_max              =   3.7430736794620E+01
(PID.TID 0000.0001) %MON dynstat_sss_min              =   2.9785243947832E+01
(PID.TID 0000.0001) %MON dynstat_sss_mean             =   3.4851729876533E+01
(PID.TID 0000.0001) %MON dynstat_sss_sd               =   9.7279402334059E-01
(PID.TID 0000.0001) %MON dynstat_sss_del2             =   7.9767758550672E-03
(PID.TID 0000.0001) %MON forcing_qnet_max             =   4.2169909667969E+02
(PID.TID 0000.0001) %MON forcing_qnet_min             =  -1.7858243103027E+02
(PID.TID 0000.0001) %MON forcing_qnet_mean            =  -1.6003070996624E+01
(PID.TID 0000.0001) %MON forcing_qnet_sd              =   1.0345568885738E+02
(PID.TID 0000.0001) %MON forcing_qnet_del2            =   1.0009668564957E+00
(PID.TID 0000.0001) %MON forcing_qsw_max              =   0.0000000000000E+00
(PID.TID 0000.0001) %MON forcing_qsw_min              =   0.0000000000000E+00
(PID.TID 0000.0001) %MON forcing_qsw_mean             =   0.0000000000000E+00
(PID.TID 0000.0001) %MON forcing_qsw_sd               =   0.0000000000000E+00
(PID.TID 0000.0001) %MON forcing_qsw_del2             =   0.0000000000000E+00
(PID.TID 0000.0001) %MON forcing_empmr_max            =   8.0289700576941E-05
(PID.TID 0000.0001) %MON forcing_empmr_min            =  -7.6633821777250E-05
(PID.TID 0000.0001) %MON forcing_empmr_mean           =   9.2703144567037E-07
(PID.TID 0000.0001) %MON forcing_empmr_sd             =   2.8506708365835E-05
(PID.TID 0000.0001) %MON forcing_empmr_del2           =   3.6098786833147E-07
(PID.TID 0000.0001) %MON forcing_fu_max               =   2.7760242819786E-01
(PID.TID 0000.0001) %MON forcing_fu_min               =  -1.7589417994022E-01
(PID.TID 0000.0001) %MON forcing_fu_mean              =   1.6327536445380E-02
(PID.TID 0000.0001) %MON forcing_fu_sd                =   9.0202228865328E-02
(PID.TID 0000.0001) %MON forcing_fu_del2              =   6.8655513835804E-04
(PID.TID 0000.0001) %MON forcing_fv_max               =   2.1387063860893E-01
(PID.TID 0000.0001) %MON forcing_fv_min               =  -1.7218910157681E-01
(PID.TID 0000.0001) %MON forcing_fv_mean              =  -5.6504631797962E-03
(PID.TID 0000.0001) %MON forcing_fv_sd                =   4.6529078937274E-02
(PID.TID 0000.0001) %MON forcing_fv_del2              =   4.7274716093950E-04
(PID.TID 0000.0001) %MON trAdv_CFL_u_max              =   4.3706908374888E-02
(PID.TID 0000.0001) %MON trAdv_CFL_v_max              =   3.0413780044899E-02
(PID.TID 0000.0001) %MON trAdv_CFL_w_max              =   5.3014553141519E-02
(PID.TID 0000.0001) %MON advcfl_uvel_max              =   4.0928761905244E-02
(PID.TID 0000.0001) %MON advcfl_vvel_max              =   2.9794590980544E-02
(PID.TID 0000.0001) %MON advcfl_wvel_max              =   4.4696134933711E-02
(PID.TID 0000.0001) %MON advcfl_W_hf_max              =   4.9351982322639E-02
(PID.TID 0000.0001) %MON pe_b_mean                    =   4.3320925960004E-04
(PID.TID 0000.0001) %MON ke_max                       =   1.4265919609974E-02
(PID.TID 0000.0001) %MON ke_mean                      =   1.2357972417710E-04
(PID.TID 0000.0001) %MON ke_vol                       =   1.3226782436723E+18
(PID.TID 0000.0001) %MON vort_r_min                   =  -2.2431582162800E-07
(PID.TID 0000.0001) %MON vort_r_max                   =   3.7677304111608E-07
(PID.TID 0000.0001) %MON vort_a_mean                  =  -2.5274807072979E-05
(PID.TID 0000.0001) %MON vort_a_sd                    =   7.3604516315354E-05
(PID.TID 0000.0001) %MON vort_p_mean                  =  -3.1845655390645E-05
(PID.TID 0000.0001) %MON vort_p_sd                    =   1.3162481039615E-04
(PID.TID 0000.0001) %MON surfExpan_theta_mean         =   1.6417534861942E-08
(PID.TID 0000.0001) %MON surfExpan_salt_mean          =   5.9804323856606E-08
(PID.TID 0000.0001) // =======================================================
(PID.TID 0000.0001) // End MONITOR dynamic field statistics
(PID.TID 0000.0001) // =======================================================
 EXTERNAL_FIELDS_LOAD,        22 : iP,iLd,i0,i1=    1    2    1    2 ; Wght=  0.7666666667  0.2333333333
 EXTERNAL_FIELDS_LOAD: (fu0,1),fu,fv= -3.5633E-02 -1.4435E-02 -3.0687E-02 -4.8012E-02
 EXTERNAL_FIELDS_LOAD: SST,SSS,Q,E-P=  6.1069E-01  3.4646E+01  2.5987E+02  1.0876E-05
DEBUG_STATS_RL:          Uvel (THERMODYNAMICS)  min= -1.46629318433342E-01
DEBUG_STATS_RL:          Uvel (THERMODYNAMICS)  max=  1.56554340982197E-01
DEBUG_STATS_RL:          Uvel (THERMODYNAMICS) mean=  4.59282271640797E-03
DEBUG_STATS_RL:          Uvel (THERMODYNAMICS) S.D.=  2.13530056154194E-02
DEBUG_STATS_RL:          Vvel (THERMODYNAMICS)  min= -1.28293503877860E-01
DEBUG_STATS_RL:          Vvel (THERMODYNAMICS)  max=  1.53355895591405E-01
DEBUG_STATS_RL:          Vvel (THERMODYNAMICS) mean=  2.00753783312474E-03
DEBUG_STATS_RL:          Vvel (THERMODYNAMICS) S.D.=  1.65756140588778E-02
DEBUG_STATS_RL:          Wvel (THERMODYNAMICS)  min= -1.49069419274000E-04
DEBUG_STATS_RL:          Wvel (THERMODYNAMICS)  max=  1.22252509647249E-04
DEBUG_STATS_RL:          Wvel (THERMODYNAMICS) mean=  4.71500100767155E-07
DEBUG_STATS_RL:          Wvel (THERMODYNAMICS) S.D.=  1.57982518619154E-05
DEBUG_STATS_RL:         Theta (THERMODYNAMICS)  min= -2.01409083406512E+00
DEBUG_STATS_RL:         Theta (THERMODYNAMICS)  max=  2.98764021904557E+01
DEBUG_STATS_RL:         Theta (THERMODYNAMICS) mean=  3.20904075330939E+00
DEBUG_STATS_RL:         Theta (THERMODYNAMICS) S.D.=  5.85781063940323E+00
DEBUG_STATS_RL:          Salt (THERMODYNAMICS)  min= -1.04083408558608E-17
DEBUG_STATS_RL:          Salt (THERMODYNAMICS)  max=  3.74452787238032E+01
DEBUG_STATS_RL:          Salt (THERMODYNAMICS) mean=  1.88451482689772E+01
DEBUG_STATS_RL:          Salt (THERMODYNAMICS) S.D.=  1.73006337788114E+01
DEBUG_STATS_RL:         GtNm1 (THERMODYNAMICS)  min= -3.57725973674129E-06
DEBUG_STATS_RL:         GtNm1 (THERMODYNAMICS)  max=  2.55872445498333E-06
DEBUG_STATS_RL:         GtNm1 (THERMODYNAMICS) mean= -1.35849723302891E-09
DEBUG_STATS_RL:         GtNm1 (THERMODYNAMICS) S.D.=  2.33432309606083E-07
DEBUG_STATS_RL:         GsNm1 (THERMODYNAMICS)  min= -5.07440750503342E-07
DEBUG_STATS_RL:         GsNm1 (THERMODYNAMICS)  max=  3.26613036999072E-07
DEBUG_STATS_RL:         GsNm1 (THERMODYNAMICS) mean= -4.89022920408154E-10
DEBUG_STATS_RL:         GsNm1 (THERMODYNAMICS) S.D.=  2.10132598540668E-08
DEBUG_STATS_RL:                EtaN (DYNAMICS)  min= -1.66067501995094E+00
DEBUG_STATS_RL:                EtaN (DYNAMICS)  max=  9.52823929580545E-01
DEBUG_STATS_RL:                EtaN (DYNAMICS) mean= -1.68555690269733E-01
DEBUG_STATS_RL:                EtaN (DYNAMICS) S.D.=  6.59374695015135E-01
DEBUG_STATS_RL:                Uvel (DYNAMICS)  min= -1.46629318433342E-01
DEBUG_STATS_RL:                Uvel (DYNAMICS)  max=  1.56554340982197E-01
DEBUG_STATS_RL:                Uvel (DYNAMICS) mean=  4.59282271640797E-03
DEBUG_STATS_RL:                Uvel (DYNAMICS) S.D.=  2.13530056154194E-02
DEBUG_STATS_RL:                Vvel (DYNAMICS)  min= -1.28293503877860E-01
DEBUG_STATS_RL:                Vvel (DYNAMICS)  max=  1.53355895591405E-01
DEBUG_STATS_RL:                Vvel (DYNAMICS) mean=  2.00753783312474E-03
DEBUG_STATS_RL:                Vvel (DYNAMICS) S.D.=  1.65756140588778E-02
DEBUG_STATS_RL:                Wvel (DYNAMICS)  min= -1.49069419274000E-04
DEBUG_STATS_RL:                Wvel (DYNAMICS)  max=  1.22252509647249E-04
DEBUG_STATS_RL:                Wvel (DYNAMICS) mean=  4.71500100767155E-07
DEBUG_STATS_RL:                Wvel (DYNAMICS) S.D.=  1.57982518619154E-05
DEBUG_STATS_RL:               Theta (DYNAMICS)  min= -2.01409083406512E+00
DEBUG_STATS_RL:               Theta (DYNAMICS)  max=  2.98764021904557E+01
DEBUG_STATS_RL:               Theta (DYNAMICS) mean=  3.20904075330939E+00
DEBUG_STATS_RL:               Theta (DYNAMICS) S.D.=  5.85781063940323E+00
DEBUG_STATS_RL:                Salt (DYNAMICS)  min= -1.04083408558608E-17
DEBUG_STATS_RL:                Salt (DYNAMICS)  max=  3.74452787238032E+01
DEBUG_STATS_RL:                Salt (DYNAMICS) mean=  1.88451482689772E+01
DEBUG_STATS_RL:                Salt (DYNAMICS) S.D.=  1.73006337788114E+01
DEBUG_STATS_RL:                  Gu (DYNAMICS)  min= -1.52129116457398E-01
DEBUG_STATS_RL:                  Gu (DYNAMICS)  max=  1.55760187591475E-01
DEBUG_STATS_RL:                  Gu (DYNAMICS) mean=  4.00130378960864E-03
DEBUG_STATS_RL:                  Gu (DYNAMICS) S.D.=  2.06755742376421E-02
DEBUG_STATS_RL:                  Gv (DYNAMICS)  min= -1.43178662748870E-01
DEBUG_STATS_RL:                  Gv (DYNAMICS)  max=  1.71710421138624E-01
DEBUG_STATS_RL:                  Gv (DYNAMICS) mean=  4.12482700368835E-03
DEBUG_STATS_RL:                  Gv (DYNAMICS) S.D.=  1.84200543678018E-02
DEBUG_STATS_RL:               GuNm1 (DYNAMICS)  min= -7.59811616811682E-06
DEBUG_STATS_RL:               GuNm1 (DYNAMICS)  max=  7.76931375459027E-06
DEBUG_STATS_RL:               GuNm1 (DYNAMICS) mean= -1.25055240525147E-08
DEBUG_STATS_RL:               GuNm1 (DYNAMICS) S.D.=  1.16510556458264E-06
DEBUG_STATS_RL:               GvNm1 (DYNAMICS)  min= -9.83740761123347E-06
DEBUG_STATS_RL:               GvNm1 (DYNAMICS)  max=  1.70889951909723E-05
DEBUG_STATS_RL:               GvNm1 (DYNAMICS) mean=  7.69358201953930E-07
DEBUG_STATS_RL:               GvNm1 (DYNAMICS) S.D.=  2.60653547227819E-06
DEBUG_STATS_RL:               GtNm1 (DYNAMICS)  min= -3.57725973674129E-06
DEBUG_STATS_RL:               GtNm1 (DYNAMICS)  max=  2.55872445498333E-06
DEBUG_STATS_RL:               GtNm1 (DYNAMICS) mean= -1.35849723302891E-09
DEBUG_STATS_RL:               GtNm1 (DYNAMICS) S.D.=  2.33432309606083E-07
DEBUG_STATS_RL:               GsNm1 (DYNAMICS)  min= -5.07440750503342E-07
DEBUG_STATS_RL:               GsNm1 (DYNAMICS)  max=  3.26613036999072E-07
DEBUG_STATS_RL:               GsNm1 (DYNAMICS) mean= -4.89022920408154E-10
DEBUG_STATS_RL:               GsNm1 (DYNAMICS) S.D.=  2.10132598540668E-08
DEBUG_STATS_RL:    cg2d_b (SOLVE_FOR_PRESSURE)  min= -2.26391919244785E+04
DEBUG_STATS_RL:    cg2d_b (SOLVE_FOR_PRESSURE)  max=  1.69945978049517E+04
DEBUG_STATS_RL:    cg2d_b (SOLVE_FOR_PRESSURE) mean=  1.60610048133583E+00
DEBUG_STATS_RL:    cg2d_b (SOLVE_FOR_PRESSURE) S.D.=  3.53569699178905E+03
 cg2d: Sum(rhs),rhsMax =   1.64233892565355E-01  1.48700274035430E+00
(PID.TID 0000.0001)  cg2d: iter=     1 ; resid.=  1.24259934872829E-01
(PID.TID 0000.0001)  cg2d: iter=     2 ; resid.=  6.78005844187263E-02
(PID.TID 0000.0001)  cg2d: iter=     3 ; resid.=  5.75992584800395E-02
(PID.TID 0000.0001)  cg2d: iter=     4 ; resid.=  5.74707312744033E-02
(PID.TID 0000.0001)  cg2d: iter=     5 ; resid.=  5.38787919133000E-02
(PID.TID 0000.0001)  cg2d: iter=     6 ; resid.=  4.80387458233014E-02
(PID.TID 0000.0001)  cg2d: iter=     7 ; resid.=  4.08177099291127E-02
(PID.TID 0000.0001)  cg2d: iter=     8 ; resid.=  3.19056673110027E-02
(PID.TID 0000.0001)  cg2d: iter=     9 ; resid.=  2.43744930305873E-02
(PID.TID 0000.0001)  cg2d: iter=    10 ; resid.=  1.75965154305544E-02
(PID.TID 0000.0001)  cg2d: iter=    11 ; resid.=  1.29619654349179E-02
(PID.TID 0000.0001)  cg2d: iter=    12 ; resid.=  1.05021178565637E-02
(PID.TID 0000.0001)  cg2d: iter=    13 ; resid.=  9.11950494076998E-03
(PID.TID 0000.0001)  cg2d: iter=    14 ; resid.=  7.53620344983925E-03
(PID.TID 0000.0001)  cg2d: iter=    15 ; resid.=  6.30325378133834E-03
(PID.TID 0000.0001)  cg2d: iter=    16 ; resid.=  4.88356842006101E-03
(PID.TID 0000.0001)  cg2d: iter=    17 ; resid.=  4.06984358442150E-03
(PID.TID 0000.0001)  cg2d: iter=    18 ; resid.=  3.59742089683250E-03
(PID.TID 0000.0001)  cg2d: iter=    19 ; resid.=  3.02261627671901E-03
(PID.TID 0000.0001)  cg2d: iter=    20 ; resid.=  2.38166345247953E-03
(PID.TID 0000.0001)  cg2d: iter=    21 ; resid.=  1.78751187383482E-03
(PID.TID 0000.0001)  cg2d: iter=    22 ; resid.=  1.36196667878612E-03
(PID.TID 0000.0001)  cg2d: iter=    23 ; resid.=  1.06153412053220E-03
(PID.TID 0000.0001)  cg2d: iter=    24 ; resid.=  9.57590794544551E-04
(PID.TID 0000.0001)  cg2d: iter=    25 ; resid.=  8.46608272079191E-04
(PID.TID 0000.0001)  cg2d: iter=    26 ; resid.=  6.98977702420963E-04
(PID.TID 0000.0001)  cg2d: iter=    27 ; resid.=  5.69767089544793E-04
(PID.TID 0000.0001)  cg2d: iter=    28 ; resid.=  5.03768651274058E-04
(PID.TID 0000.0001)  cg2d: iter=    29 ; resid.=  4.35467091138235E-04
(PID.TID 0000.0001)  cg2d: iter=    30 ; resid.=  3.67278345449419E-04
(PID.TID 0000.0001)  cg2d: iter=    31 ; resid.=  3.10881850535431E-04
(PID.TID 0000.0001)  cg2d: iter=    32 ; resid.=  2.72799832349522E-04
(PID.TID 0000.0001)  cg2d: iter=    33 ; resid.=  2.19503242674332E-04
(PID.TID 0000.0001)  cg2d: iter=    34 ; resid.=  1.60481242581807E-04
(PID.TID 0000.0001)  cg2d: iter=    35 ; resid.=  1.22352414577352E-04
(PID.TID 0000.0001)  cg2d: iter=    36 ; resid.=  9.89313796720586E-05
(PID.TID 0000.0001)  cg2d: iter=    37 ; resid.=  8.45001683218225E-05
(PID.TID 0000.0001)  cg2d: iter=    38 ; resid.=  7.37746548056294E-05
(PID.TID 0000.0001)  cg2d: iter=    39 ; resid.=  6.62250199853105E-05
(PID.TID 0000.0001)  cg2d: iter=    40 ; resid.=  6.21588990957724E-05
(PID.TID 0000.0001)  cg2d: iter=    41 ; resid.=  5.36147989009909E-05
(PID.TID 0000.0001)  cg2d: iter=    42 ; resid.=  4.48516510412823E-05
(PID.TID 0000.0001)  cg2d: iter=    43 ; resid.=  3.84471025429739E-05
(PID.TID 0000.0001)  cg2d: iter=    44 ; resid.=  3.22341908769475E-05
(PID.TID 0000.0001)  cg2d: iter=    45 ; resid.=  2.52622047124802E-05
(PID.TID 0000.0001)  cg2d: iter=    46 ; resid.=  1.94337475722023E-05
(PID.TID 0000.0001)  cg2d: iter=    47 ; resid.=  1.50699077056109E-05
(PID.TID 0000.0001)  cg2d: iter=    48 ; resid.=  1.28802115252637E-05
(PID.TID 0000.0001)  cg2d: iter=    49 ; resid.=  1.11008224006293E-05
(PID.TID 0000.0001)  cg2d: iter=    50 ; resid.=  9.78677580751798E-06
(PID.TID 0000.0001)  cg2d: iter=    51 ; resid.=  8.16497943024082E-06
(PID.TID 0000.0001)  cg2d: iter=    52 ; resid.=  6.68781013949644E-06
(PID.TID 0000.0001)  cg2d: iter=    53 ; resid.=  5.63363587956765E-06
(PID.TID 0000.0001)  cg2d: iter=    54 ; resid.=  5.09542939944332E-06
(PID.TID 0000.0001)  cg2d: iter=    55 ; resid.=  4.72815015524098E-06
(PID.TID 0000.0001)  cg2d: iter=    56 ; resid.=  4.02004716012768E-06
(PID.TID 0000.0001)  cg2d: iter=    57 ; resid.=  3.09583277102788E-06
(PID.TID 0000.0001)  cg2d: iter=    58 ; resid.=  2.42228346714423E-06
(PID.TID 0000.0001)  cg2d: iter=    59 ; resid.=  1.95435262815342E-06
(PID.TID 0000.0001)  cg2d: iter=    60 ; resid.=  1.59989829911376E-06
(PID.TID 0000.0001)  cg2d: iter=    61 ; resid.=  1.45635154682738E-06
(PID.TID 0000.0001)  cg2d: iter=    62 ; resid.=  1.23827887613104E-06
(PID.TID 0000.0001)  cg2d: iter=    63 ; resid.=  1.02643639368166E-06
(PID.TID 0000.0001)  cg2d: iter=    64 ; resid.=  7.82414366781939E-07
(PID.TID 0000.0001)  cg2d: iter=    65 ; resid.=  5.98565843264412E-07
(PID.TID 0000.0001)  cg2d: iter=    66 ; resid.=  4.31422452260614E-07
(PID.TID 0000.0001)  cg2d: iter=    67 ; resid.=  3.05457526227937E-07
(PID.TID 0000.0001)  cg2d: iter=    68 ; resid.=  2.28289675425531E-07
(PID.TID 0000.0001)  cg2d: iter=    69 ; resid.=  1.65083123230228E-07
(PID.TID 0000.0001)  cg2d: iter=    70 ; resid.=  1.21355463560609E-07
(PID.TID 0000.0001)  cg2d: iter=    71 ; resid.=  9.20445730649122E-08
(PID.TID 0000.0001)  cg2d: iter=    72 ; resid.=  6.74906272529677E-08
(PID.TID 0000.0001)  cg2d: iter=    73 ; resid.=  5.32398075597712E-08
(PID.TID 0000.0001)  cg2d: iter=    74 ; resid.=  4.33628500579186E-08
(PID.TID 0000.0001)  cg2d: iter=    75 ; resid.=  3.58008971601651E-08
(PID.TID 0000.0001)  cg2d: iter=    76 ; resid.=  2.98978941625939E-08
(PID.TID 0000.0001)  cg2d: iter=    77 ; resid.=  2.71548568161266E-08
(PID.TID 0000.0001)  cg2d: iter=    78 ; resid.=  2.25422390155585E-08
(PID.TID 0000.0001)  cg2d: iter=    79 ; resid.=  1.77620945316158E-08
(PID.TID 0000.0001)  cg2d: iter=    80 ; resid.=  1.35080051323568E-08
(PID.TID 0000.0001)  cg2d: iter=    81 ; resid.=  1.00019989746730E-08
(PID.TID 0000.0001)  cg2d: iter=    82 ; resid.=  8.16688315842462E-09
(PID.TID 0000.0001)  cg2d: iter=    83 ; resid.=  7.15360287607387E-09
(PID.TID 0000.0001)  cg2d: iter=    84 ; resid.=  6.12156997414792E-09
(PID.TID 0000.0001)  cg2d: iter=    85 ; resid.=  4.85333042200632E-09
(PID.TID 0000.0001)  cg2d: iter=    86 ; resid.=  3.68048358271625E-09
(PID.TID 0000.0001)  cg2d: iter=    87 ; resid.=  3.10257583818314E-09
(PID.TID 0000.0001)  cg2d: iter=    88 ; resid.=  2.48045255263555E-09
(PID.TID 0000.0001)  cg2d: iter=    89 ; resid.=  1.96916307252133E-09
(PID.TID 0000.0001)  cg2d: iter=    90 ; resid.=  1.55702538010559E-09
(PID.TID 0000.0001)  cg2d: iter=    91 ; resid.=  1.28565168706152E-09
(PID.TID 0000.0001)  cg2d: iter=    92 ; resid.=  1.09567759951188E-09
(PID.TID 0000.0001)  cg2d: iter=    93 ; resid.=  8.26937142600870E-10
(PID.TID 0000.0001)  cg2d: iter=    94 ; resid.=  6.18481771506573E-10
(PID.TID 0000.0001)  cg2d: iter=    95 ; resid.=  4.92037920407242E-10
(PID.TID 0000.0001)  cg2d: iter=    96 ; resid.=  3.73122483038808E-10
(PID.TID 0000.0001)  cg2d: iter=    97 ; resid.=  2.64105942139165E-10
(PID.TID 0000.0001)  cg2d: iter=    98 ; resid.=  1.92867875264392E-10
(PID.TID 0000.0001)  cg2d: iter=    99 ; resid.=  1.53996484292652E-10
(PID.TID 0000.0001)  cg2d: iter=   100 ; resid.=  1.30792768457333E-10
(PID.TID 0000.0001)  cg2d: iter=   101 ; resid.=  1.10975152763005E-10
(PID.TID 0000.0001)  cg2d: iter=   102 ; resid.=  9.54190352853496E-11
(PID.TID 0000.0001)  cg2d: iter=   103 ; resid.=  8.68116507825314E-11
(PID.TID 0000.0001)  cg2d: iter=   104 ; resid.=  8.09335739725152E-11
(PID.TID 0000.0001)  cg2d: iter=   105 ; resid.=  6.85044397305136E-11
(PID.TID 0000.0001)  cg2d: iter=   106 ; resid.=  5.35945033711991E-11
(PID.TID 0000.0001)  cg2d: iter=   107 ; resid.=  4.47097022383101E-11
(PID.TID 0000.0001)  cg2d: iter=   108 ; resid.=  3.80671442027503E-11
(PID.TID 0000.0001)  cg2d: iter=   109 ; resid.=  3.41193527275710E-11
(PID.TID 0000.0001)  cg2d: iter=   110 ; resid.=  2.94307456951633E-11
(PID.TID 0000.0001)  cg2d: iter=   111 ; resid.=  2.42872157117120E-11
(PID.TID 0000.0001)  cg2d: iter=   112 ; resid.=  2.05890396385114E-11
(PID.TID 0000.0001)  cg2d: iter=   113 ; resid.=  1.67432198918418E-11
(PID.TID 0000.0001)  cg2d: iter=   114 ; resid.=  1.25593904089785E-11
(PID.TID 0000.0001)  cg2d: iter=   115 ; resid.=  9.85742271291005E-12
(PID.TID 0000.0001)  cg2d: iter=   116 ; resid.=  7.92162969159796E-12
(PID.TID 0000.0001)  cg2d: iter=   117 ; resid.=  6.18915273790968E-12
(PID.TID 0000.0001)  cg2d: iter=   118 ; resid.=  4.55248968528263E-12
(PID.TID 0000.0001)  cg2d: iter=   119 ; resid.=  3.03341160132136E-12
(PID.TID 0000.0001)  cg2d: iter=   120 ; resid.=  2.15498893136901E-12
(PID.TID 0000.0001)  cg2d: iter=   121 ; resid.=  1.57254650282496E-12
(PID.TID 0000.0001)  cg2d: iter=   122 ; resid.=  1.15317103830723E-12
(PID.TID 0000.0001)  cg2d: iter=   123 ; resid.=  9.54205793143153E-13
(PID.TID 0000.0001)  cg2d: iter=   124 ; resid.=  7.84793040165358E-13
(PID.TID 0000.0001)  cg2d: iter=   125 ; resid.=  6.24052769349816E-13
(PID.TID 0000.0001)  cg2d: iter=   126 ; resid.=  5.10262042031559E-13
(PID.TID 0000.0001)  cg2d: iter=   127 ; resid.=  4.01471540417729E-13
(PID.TID 0000.0001)  cg2d: iter=   128 ; resid.=  2.77851590036513E-13
(PID.TID 0000.0001)  cg2d: iter=   129 ; resid.=  1.97607939268451E-13
(PID.TID 0000.0001)  cg2d: iter=   130 ; resid.=  1.51124640381665E-13
(PID.TID 0000.0001)  cg2d: iter=   131 ; resid.=  1.18522647333931E-13
(PID.TID 0000.0001)  cg2d: iter=   132 ; resid.=  9.47146925646499E-14
DEBUG_STATS_RL:    cg2d_x (SOLVE_FOR_PRESSURE)  min= -1.64177096138852E+01
DEBUG_STATS_RL:    cg2d_x (SOLVE_FOR_PRESSURE)  max=  9.23504596906261E+00
DEBUG_STATS_RL:    cg2d_x (SOLVE_FOR_PRESSURE) mean= -1.65007909572744E+00
DEBUG_STATS_RL:    cg2d_x (SOLVE_FOR_PRESSURE) S.D.=  6.44271051398934E+00
(PID.TID 0000.0001)      cg2d_init_res =   4.54172874518767E-01
(PID.TID 0000.0001)      cg2d_iters(min,last) =      -1     132
(PID.TID 0000.0001)      cg2d_last_res =   9.47146925646499E-14
(PID.TID 0000.0001) // =======================================================
(PID.TID 0000.0001) // Begin MONITOR dynamic field statistics
(PID.TID 0000.0001) // =======================================================
(PID.TID 0000.0001) %MON time_tsnumber                =                    23
(PID.TID 0000.0001) %MON time_secondsf                =   1.9872000000000E+06
(PID.TID 0000.0001) %MON dynstat_eta_max              =   9.4139102640792E-01
(PID.TID 0000.0001) %MON dynstat_eta_min              =  -1.6735687679801E+00
(PID.TID 0000.0001) %MON dynstat_eta_mean             =  -1.6757667023888E-03
(PID.TID 0000.0001) %MON dynstat_eta_sd               =   5.7839368907991E-01
(PID.TID 0000.0001) %MON dynstat_eta_del2             =   1.9458931059144E-03
(PID.TID 0000.0001) %MON dynstat_uvel_max             =   1.4770861693549E-01
(PID.TID 0000.0001) %MON dynstat_uvel_min             =  -1.5117578845252E-01
(PID.TID 0000.0001) %MON dynstat_uvel_mean            =   1.2649939695701E-03
(PID.TID 0000.0001) %MON dynstat_uvel_sd              =   1.2592878305894E-02
(PID.TID 0000.0001) %MON dynstat_uvel_del2            =   8.3652265991760E-05
(PID.TID 0000.0001) %MON dynstat_vvel_max             =   1.5185157503728E-01
(PID.TID 0000.0001) %MON dynstat_vvel_min             =  -1.3325330500229E-01
(PID.TID 0000.0001) %MON dynstat_vvel_mean            =   2.5648629457712E-05
(PID.TID 0000.0001) %MON dynstat_vvel_sd              =   9.8531177591679E-03
(PID.TID 0000.0001) %MON dynstat_vvel_del2            =   8.5249815791901E-05
(PID.TID 0000.0001) %MON dynstat_wvel_max             =   1.2021916328818E-04
(PID.TID 0000.0001) %MON dynstat_wvel_min             =  -1.3772176543986E-04
(PID.TID 0000.0001) %MON dynstat_wvel_mean            =   6.0673895256981E-23
(PID.TID 0000.0001) %MON dynstat_wvel_sd              =   1.6586980253642E-05
(PID.TID 0000.0001) %MON dynstat_wvel_del2            =   1.8429833629738E-07
(PID.TID 0000.0001) %MON dynstat_theta_max            =   2.9876402190456E+01
(PID.TID 0000.0001) %MON dynstat_theta_min            =  -2.0140908340651E+00
(PID.TID 0000.0001) %MON dynstat_theta_mean           =   3.6205735323356E+00
(PID.TID 0000.0001) %MON dynstat_theta_sd             =   4.4161830940564E+00
(PID.TID 0000.0001) %MON dynstat_theta_del2           =   4.8400752426828E-03
(PID.TID 0000.0001) %MON dynstat_salt_max             =   3.7445278723803E+01
(PID.TID 0000.0001) %MON dynstat_salt_min             =   2.9789783049777E+01
(PID.TID 0000.0001) %MON dynstat_salt_mean            =   3.4717982183262E+01
(PID.TID 0000.0001) %MON dynstat_salt_sd              =   2.9623269310990E-01
(PID.TID 0000.0001) %MON dynstat_salt_del2            =   1.0083461205332E-03
(PID.TID 0000.0001) %MON dynstat_sst_max              =   2.9876402190456E+01
(PID.TID 0000.0001) %MON dynstat_sst_min              =  -2.0140908340651E+00
(PID.TID 0000.0001) %MON dynstat_sst_mean             =   1.8700522797481E+01
(PID.TID 0000.0001) %MON dynstat_sst_sd               =   9.0591416767412E+00
(PID.TID 0000.0001) %MON dynstat_sst_del2             =   2.6445351186576E-02
(PID.TID 0000.0001) %MON dynstat_sss_max              =   3.7431138343653E+01
(PID.TID 0000.0001) %MON dynstat_sss_min              =   2.9789783049777E+01
(PID.TID 0000.0001) %MON dynstat_sss_mean             =   3.4850991126131E+01
(PID.TID 0000.0001) %MON dynstat_sss_sd               =   9.7314841816761E-01
(PID.TID 0000.0001) %MON dynstat_sss_del2             =   7.9665354895648E-03
(PID.TID 0000.0001) %MON forcing_qnet_max             =   4.1838000996908E+02
(PID.TID 0000.0001) %MON forcing_qnet_min             =  -1.7834291178385E+02
(PID.TID 0000.0001) %MON forcing_qnet_mean            =  -1.5918161829221E+01
(PID.TID 0000.0001) %MON forcing_qnet_sd              =   1.0239971019621E+02
(PID.TID 0000.0001) %MON forcing_qnet_del2            =   9.9741913177861E-01
(PID.TID 0000.0001) %MON forcing_qsw_max              =   0.0000000000000E+00
(PID.TID 0000.0001) %MON forcing_qsw_min              =   0.0000000000000E+00
(PID.TID 0000.0001) %MON forcing_qsw_mean             =   0.0000000000000E+00
(PID.TID 0000.0001) %MON forcing_qsw_sd               =   0.0000000000000E+00
(PID.TID 0000.0001) %MON forcing_qsw_del2             =   0.0000000000000E+00
(PID.TID 0000.0001) %MON forcing_empmr_max            =   7.9975610844940E-05
(PID.TID 0000.0001) %MON forcing_empmr_min            =  -7.6713466038806E-05
(PID.TID 0000.0001) %MON forcing_empmr_mean           =   9.2771384293034E-07
(PID.TID 0000.0001) %MON forcing_empmr_sd             =   2.8463942811171E-05
(PID.TID 0000.0001) %MON forcing_empmr_del2           =   3.6008973554056E-07
(PID.TID 0000.0001) %MON forcing_fu_max               =   2.7740635275841E-01
(PID.TID 0000.0001) %MON forcing_fu_min               =  -1.7755410373211E-01
(PID.TID 0000.0001) %MON forcing_fu_mean              =   1.6381836660849E-02
(PID.TID 0000.0001) %MON forcing_fu_sd                =   9.0119528995688E-02
(PID.TID 0000.0001) %MON forcing_fu_del2              =   6.8212946826367E-04
(PID.TID 0000.0001) %MON forcing_fv_max               =   2.1066219160954E-01
(PID.TID 0000.0001) %MON forcing_fv_min               =  -1.7119780182838E-01
(PID.TID 0000.0001) %MON forcing_fv_mean              =  -5.7157240865113E-03
(PID.TID 0000.0001) %MON forcing_fv_sd                =   4.6290555441337E-02
(PID.TID 0000.0001) %MON forcing_fv_del2              =   4.6994343397308E-04
(PID.TID 0000.0001) %MON trAdv_CFL_u_max              =   4.0937074829514E-02
(PID.TID 0000.0001) %MON trAdv_CFL_v_max              =   3.0859468653366E-02
(PID.TID 0000.0001) %MON trAdv_CFL_w_max              =   4.9351982322639E-02
(PID.TID 0000.0001) %MON advcfl_uvel_max              =   3.8616181295113E-02
(PID.TID 0000.0001) %MON advcfl_vvel_max              =   2.9502325623279E-02
(PID.TID 0000.0001) %MON advcfl_wvel_max              =   4.1114416013382E-02
(PID.TID 0000.0001) %MON advcfl_W_hf_max              =   4.5397167681443E-02
(PID.TID 0000.0001) %MON pe_b_mean                    =   4.2808689900330E-04
(PID.TID 0000.0001) %MON ke_max                       =   1.3152692515362E-02
(PID.TID 0000.0001) %MON ke_mean                      =   1.1635808602673E-04
(PID.TID 0000.0001) %MON ke_vol                       =   1.3226782436723E+18
(PID.TID 0000.0001) %MON vort_r_min                   =  -2.2463871309826E-07
(PID.TID 0000.0001) %MON vort_r_max                   =   3.6308553592533E-07
(PID.TID 0000.0001) %MON vort_a_mean                  =  -2.5274807095098E-05
(PID.TID 0000.0001) %MON vort_a_sd                    =   7.3604521140479E-05
(PID.TID 0000.0001) %MON vort_p_mean                  =  -3.1845655418515E-05
(PID.TID 0000.0001) %MON vort_p_sd                    =   1.3162498617017E-04
(PID.TID 0000.0001) %MON surfExpan_theta_mean         =  -4.2837111926291E-08
(PID.TID 0000.0001) %MON surfExpan_salt_mean          =   6.0567267947738E-08
(PID.TID 0000.0001) // =======================================================
(PID.TID 0000.0001) // End MONITOR dynamic field statistics
(PID.TID 0000.0001) // =======================================================
 EXTERNAL_FIELDS_LOAD,        23 : iP,iLd,i0,i1=    1    2    1    2 ; Wght=  0.7333333333  0.2666666667
 EXTERNAL_FIELDS_LOAD: (fu0,1),fu,fv= -3.5633E-02 -1.4435E-02 -2.9980E-02 -4.6691E-02
 EXTERNAL_FIELDS_LOAD: SST,SSS,Q,E-P=  5.6102E-01  3.4636E+01  2.5903E+02  1.0767E-05
DEBUG_STATS_RL:          Uvel (THERMODYNAMICS)  min= -1.51175788452517E-01
DEBUG_STATS_RL:          Uvel (THERMODYNAMICS)  max=  1.47708616935487E-01
DEBUG_STATS_RL:          Uvel (THERMODYNAMICS) mean=  4.07094051626316E-03
DEBUG_STATS_RL:          Uvel (THERMODYNAMICS) S.D.=  2.03057883881354E-02
DEBUG_STATS_RL:          Vvel (THERMODYNAMICS)  min= -1.33253305002291E-01
DEBUG_STATS_RL:          Vvel (THERMODYNAMICS)  max=  1.51851575037280E-01
DEBUG_STATS_RL:          Vvel (THERMODYNAMICS) mean=  1.97493704579883E-03
DEBUG_STATS_RL:          Vvel (THERMODYNAMICS) S.D.=  1.64541326529477E-02
DEBUG_STATS_RL:          Wvel (THERMODYNAMICS)  min= -1.37721765439861E-04
DEBUG_STATS_RL:          Wvel (THERMODYNAMICS)  max=  1.20219163288177E-04
DEBUG_STATS_RL:          Wvel (THERMODYNAMICS) mean=  4.66988379640453E-07
DEBUG_STATS_RL:          Wvel (THERMODYNAMICS) S.D.=  1.51274004251887E-05
DEBUG_STATS_RL:         Theta (THERMODYNAMICS)  min= -2.01318247884351E+00
DEBUG_STATS_RL:         Theta (THERMODYNAMICS)  max=  2.98867591587145E+01
DEBUG_STATS_RL:         Theta (THERMODYNAMICS) mean=  3.20894466095189E+00
DEBUG_STATS_RL:         Theta (THERMODYNAMICS) S.D.=  5.85795262561036E+00
DEBUG_STATS_RL:          Salt (THERMODYNAMICS)  min= -1.04083408558608E-17
DEBUG_STATS_RL:          Salt (THERMODYNAMICS)  max=  3.74464254648461E+01
DEBUG_STATS_RL:          Salt (THERMODYNAMICS) mean=  1.88451252799976E+01
DEBUG_STATS_RL:          Salt (THERMODYNAMICS) S.D.=  1.73006130042687E+01
DEBUG_STATS_RL:         GtNm1 (THERMODYNAMICS)  min= -3.54911872476962E-06
DEBUG_STATS_RL:         GtNm1 (THERMODYNAMICS)  max=  2.59937584544860E-06
DEBUG_STATS_RL:         GtNm1 (THERMODYNAMICS) mean= -1.74789051449043E-09
DEBUG_STATS_RL:         GtNm1 (THERMODYNAMICS) S.D.=  2.33340807261861E-07
DEBUG_STATS_RL:         GsNm1 (THERMODYNAMICS)  min= -4.95307544544428E-07
DEBUG_STATS_RL:         GsNm1 (THERMODYNAMICS)  max=  4.10430438794474E-07
DEBUG_STATS_RL:         GsNm1 (THERMODYNAMICS) mean= -5.61890817257991E-10
DEBUG_STATS_RL:         GsNm1 (THERMODYNAMICS) S.D.=  2.12610502176479E-08
DEBUG_STATS_RL:                EtaN (DYNAMICS)  min= -1.67356876798009E+00
DEBUG_STATS_RL:                EtaN (DYNAMICS)  max=  9.41391026407924E-01
DEBUG_STATS_RL:                EtaN (DYNAMICS) mean= -1.68203781419719E-01
DEBUG_STATS_RL:                EtaN (DYNAMICS) S.D.=  6.56749287868432E-01
DEBUG_STATS_RL:                Uvel (DYNAMICS)  min= -1.51175788452517E-01
DEBUG_STATS_RL:                Uvel (DYNAMICS)  max=  1.47708616935487E-01
DEBUG_STATS_RL:                Uvel (DYNAMICS) mean=  4.07094051626316E-03
DEBUG_STATS_RL:                Uvel (DYNAMICS) S.D.=  2.03057883881354E-02
DEBUG_STATS_RL:                Vvel (DYNAMICS)  min= -1.33253305002291E-01
DEBUG_STATS_RL:                Vvel (DYNAMICS)  max=  1.51851575037280E-01
DEBUG_STATS_RL:                Vvel (DYNAMICS) mean=  1.97493704579883E-03
DEBUG_STATS_RL:                Vvel (DYNAMICS) S.D.=  1.64541326529477E-02
DEBUG_STATS_RL:                Wvel (DYNAMICS)  min= -1.37721765439861E-04
DEBUG_STATS_RL:                Wvel (DYNAMICS)  max=  1.20219163288177E-04
DEBUG_STATS_RL:                Wvel (DYNAMICS) mean=  4.66988379640453E-07
DEBUG_STATS_RL:                Wvel (DYNAMICS) S.D.=  1.51274004251887E-05
DEBUG_STATS_RL:               Theta (DYNAMICS)  min= -2.01318247884351E+00
DEBUG_STATS_RL:               Theta (DYNAMICS)  max=  2.98867591587145E+01
DEBUG_STATS_RL:               Theta (DYNAMICS) mean=  3.20894466095189E+00
DEBUG_STATS_RL:               Theta (DYNAMICS) S.D.=  5.85795262561036E+00
DEBUG_STATS_RL:                Salt (DYNAMICS)  min= -1.04083408558608E-17
DEBUG_STATS_RL:                Salt (DYNAMICS)  max=  3.74464254648461E+01
DEBUG_STATS_RL:                Salt (DYNAMICS) mean=  1.88451252799976E+01
DEBUG_STATS_RL:                Salt (DYNAMICS) S.D.=  1.73006130042687E+01
DEBUG_STATS_RL:                  Gu (DYNAMICS)  min= -1.56231230135114E-01
DEBUG_STATS_RL:                  Gu (DYNAMICS)  max=  1.46464805468684E-01
DEBUG_STATS_RL:                  Gu (DYNAMICS) mean=  3.47770109501061E-03
DEBUG_STATS_RL:                  Gu (DYNAMICS) S.D.=  1.97026169646653E-02
DEBUG_STATS_RL:                  Gv (DYNAMICS)  min= -1.46379330574471E-01
DEBUG_STATS_RL:                  Gv (DYNAMICS)  max=  1.66937191723987E-01
DEBUG_STATS_RL:                  Gv (DYNAMICS) mean=  4.03490605511197E-03
DEBUG_STATS_RL:                  Gv (DYNAMICS) S.D.=  1.81377378856080E-02
DEBUG_STATS_RL:               GuNm1 (DYNAMICS)  min= -7.64482888406059E-06
DEBUG_STATS_RL:               GuNm1 (DYNAMICS)  max=  7.79203148632560E-06
DEBUG_STATS_RL:               GuNm1 (DYNAMICS) mean= -1.26247027148400E-08
DEBUG_STATS_RL:               GuNm1 (DYNAMICS) S.D.=  1.17438224232829E-06
DEBUG_STATS_RL:               GvNm1 (DYNAMICS)  min= -1.00475117202922E-05
DEBUG_STATS_RL:               GvNm1 (DYNAMICS)  max=  1.70691839472505E-05
DEBUG_STATS_RL:               GvNm1 (DYNAMICS) mean=  7.68409848545536E-07
DEBUG_STATS_RL:               GvNm1 (DYNAMICS) S.D.=  2.61618470819220E-06
DEBUG_STATS_RL:               GtNm1 (DYNAMICS)  min= -3.54911872476962E-06
DEBUG_STATS_RL:               GtNm1 (DYNAMICS)  max=  2.59937584544860E-06
DEBUG_STATS_RL:               GtNm1 (DYNAMICS) mean= -1.74789051449043E-09
DEBUG_STATS_RL:               GtNm1 (DYNAMICS) S.D.=  2.33340807261861E-07
DEBUG_STATS_RL:               GsNm1 (DYNAMICS)  min= -4.95307544544428E-07
DEBUG_STATS_RL:               GsNm1 (DYNAMICS)  max=  4.10430438794474E-07
DEBUG_STATS_RL:               GsNm1 (DYNAMICS) mean= -5.61890817257991E-10
DEBUG_STATS_RL:               GsNm1 (DYNAMICS) S.D.=  2.12610502176479E-08
DEBUG_STATS_RL:    cg2d_b (SOLVE_FOR_PRESSURE)  min= -2.28816374586181E+04
DEBUG_STATS_RL:    cg2d_b (SOLVE_FOR_PRESSURE)  max=  1.75654511277836E+04
DEBUG_STATS_RL:    cg2d_b (SOLVE_FOR_PRESSURE) mean=  1.68037945959966E+00
DEBUG_STATS_RL:    cg2d_b (SOLVE_FOR_PRESSURE) S.D.=  3.59868379956415E+03
 cg2d: Sum(rhs),rhsMax =   1.70008744173444E-01  1.50292721216650E+00
(PID.TID 0000.0001)  cg2d: iter=     1 ; resid.=  1.20072695714153E-01
(PID.TID 0000.0001)  cg2d: iter=     2 ; resid.=  6.54013584830211E-02
(PID.TID 0000.0001)  cg2d: iter=     3 ; resid.=  5.54454868371414E-02
(PID.TID 0000.0001)  cg2d: iter=     4 ; resid.=  5.54730850772920E-02
(PID.TID 0000.0001)  cg2d: iter=     5 ; resid.=  5.19367661947026E-02
(PID.TID 0000.0001)  cg2d: iter=     6 ; resid.=  4.62441110170491E-02
(PID.TID 0000.0001)  cg2d: iter=     7 ; resid.=  3.94457618893916E-02
(PID.TID 0000.0001)  cg2d: iter=     8 ; resid.=  3.10852564453834E-02
(PID.TID 0000.0001)  cg2d: iter=     9 ; resid.=  2.38329899476540E-02
(PID.TID 0000.0001)  cg2d: iter=    10 ; resid.=  1.74104095839846E-02
(PID.TID 0000.0001)  cg2d: iter=    11 ; resid.=  1.29517835090189E-02
(PID.TID 0000.0001)  cg2d: iter=    12 ; resid.=  1.04901732119997E-02
(PID.TID 0000.0001)  cg2d: iter=    13 ; resid.=  9.06748311056307E-03
(PID.TID 0000.0001)  cg2d: iter=    14 ; resid.=  7.40369544460917E-03
(PID.TID 0000.0001)  cg2d: iter=    15 ; resid.=  6.13817644853412E-03
(PID.TID 0000.0001)  cg2d: iter=    16 ; resid.=  4.67193408325235E-03
(PID.TID 0000.0001)  cg2d: iter=    17 ; resid.=  3.86922668705770E-03
(PID.TID 0000.0001)  cg2d: iter=    18 ; resid.=  3.48864054975722E-03
(PID.TID 0000.0001)  cg2d: iter=    19 ; resid.=  2.98732536012301E-03
(PID.TID 0000.0001)  cg2d: iter=    20 ; resid.=  2.36411668115467E-03
(PID.TID 0000.0001)  cg2d: iter=    21 ; resid.=  1.76784160012665E-03
(PID.TID 0000.0001)  cg2d: iter=    22 ; resid.=  1.34730830217897E-03
(PID.TID 0000.0001)  cg2d: iter=    23 ; resid.=  1.06437854337022E-03
(PID.TID 0000.0001)  cg2d: iter=    24 ; resid.=  9.60801141352951E-04
(PID.TID 0000.0001)  cg2d: iter=    25 ; resid.=  8.39948680686356E-04
(PID.TID 0000.0001)  cg2d: iter=    26 ; resid.=  6.84389699470595E-04
(PID.TID 0000.0001)  cg2d: iter=    27 ; resid.=  5.51757074133464E-04
(PID.TID 0000.0001)  cg2d: iter=    28 ; resid.=  4.85461941228366E-04
(PID.TID 0000.0001)  cg2d: iter=    29 ; resid.=  4.20259197384320E-04
(PID.TID 0000.0001)  cg2d: iter=    30 ; resid.=  3.53655134501856E-04
(PID.TID 0000.0001)  cg2d: iter=    31 ; resid.=  2.95264974160262E-04
(PID.TID 0000.0001)  cg2d: iter=    32 ; resid.=  2.55822190445392E-04
(PID.TID 0000.0001)  cg2d: iter=    33 ; resid.=  2.05659414795573E-04
(PID.TID 0000.0001)  cg2d: iter=    34 ; resid.=  1.50851969080591E-04
(PID.TID 0000.0001)  cg2d: iter=    35 ; resid.=  1.12939365865072E-04
(PID.TID 0000.0001)  cg2d: iter=    36 ; resid.=  8.95894860561263E-05
(PID.TID 0000.0001)  cg2d: iter=    37 ; resid.=  7.46579819581626E-05
(PID.TID 0000.0001)  cg2d: iter=    38 ; resid.=  6.27587472208197E-05
(PID.TID 0000.0001)  cg2d: iter=    39 ; resid.=  5.45353292423024E-05
(PID.TID 0000.0001)  cg2d: iter=    40 ; resid.=  4.97782812848290E-05
(PID.TID 0000.0001)  cg2d: iter=    41 ; resid.=  4.33875108780538E-05
(PID.TID 0000.0001)  cg2d: iter=    42 ; resid.=  3.69988628758955E-05
(PID.TID 0000.0001)  cg2d: iter=    43 ; resid.=  3.24997997178159E-05
(PID.TID 0000.0001)  cg2d: iter=    44 ; resid.=  2.72269092273215E-05
(PID.TID 0000.0001)  cg2d: iter=    45 ; resid.=  2.13357478759385E-05
(PID.TID 0000.0001)  cg2d: iter=    46 ; resid.=  1.59963599728563E-05
(PID.TID 0000.0001)  cg2d: iter=    47 ; resid.=  1.21949799509389E-05
(PID.TID 0000.0001)  cg2d: iter=    48 ; resid.=  1.00635500505943E-05
(PID.TID 0000.0001)  cg2d: iter=    49 ; resid.=  8.54681880530245E-06
(PID.TID 0000.0001)  cg2d: iter=    50 ; resid.=  7.53560658574934E-06
(PID.TID 0000.0001)  cg2d: iter=    51 ; resid.=  6.40607446963790E-06
(PID.TID 0000.0001)  cg2d: iter=    52 ; resid.=  5.25809249267487E-06
(PID.TID 0000.0001)  cg2d: iter=    53 ; resid.=  4.40172998451026E-06
(PID.TID 0000.0001)  cg2d: iter=    54 ; resid.=  4.04571515713805E-06
(PID.TID 0000.0001)  cg2d: iter=    55 ; resid.=  3.89277306774325E-06
(PID.TID 0000.0001)  cg2d: iter=    56 ; resid.=  3.45808983769746E-06
(PID.TID 0000.0001)  cg2d: iter=    57 ; resid.=  2.72727530936051E-06
(PID.TID 0000.0001)  cg2d: iter=    58 ; resid.=  2.15872889943692E-06
(PID.TID 0000.0001)  cg2d: iter=    59 ; resid.=  1.76304947311748E-06
(PID.TID 0000.0001)  cg2d: iter=    60 ; resid.=  1.47579648632318E-06
(PID.TID 0000.0001)  cg2d: iter=    61 ; resid.=  1.34899788806161E-06
(PID.TID 0000.0001)  cg2d: iter=    62 ; resid.=  1.14414269120230E-06
(PID.TID 0000.0001)  cg2d: iter=    63 ; resid.=  9.48667901965390E-07
(PID.TID 0000.0001)  cg2d: iter=    64 ; resid.=  7.36007213105556E-07
(PID.TID 0000.0001)  cg2d: iter=    65 ; resid.=  5.73019807338421E-07
(PID.TID 0000.0001)  cg2d: iter=    66 ; resid.=  4.29637297718395E-07
(PID.TID 0000.0001)  cg2d: iter=    67 ; resid.=  3.14870553671032E-07
(PID.TID 0000.0001)  cg2d: iter=    68 ; resid.=  2.44383857792014E-07
(PID.TID 0000.0001)  cg2d: iter=    69 ; resid.=  1.83359257044707E-07
(PID.TID 0000.0001)  cg2d: iter=    70 ; resid.=  1.43618742696351E-07
(PID.TID 0000.0001)  cg2d: iter=    71 ; resid.=  1.18056009906519E-07
(PID.TID 0000.0001)  cg2d: iter=    72 ; resid.=  9.59061879009664E-08
(PID.TID 0000.0001)  cg2d: iter=    73 ; resid.=  8.66181417455312E-08
(PID.TID 0000.0001)  cg2d: iter=    74 ; resid.=  8.03326029042522E-08
(PID.TID 0000.0001)  cg2d: iter=    75 ; resid.=  7.43957651957343E-08
(PID.TID 0000.0001)  cg2d: iter=    76 ; resid.=  6.65625442183658E-08
(PID.TID 0000.0001)  cg2d: iter=    77 ; resid.=  5.96063089843964E-08
(PID.TID 0000.0001)  cg2d: iter=    78 ; resid.=  4.75907272631090E-08
(PID.TID 0000.0001)  cg2d: iter=    79 ; resid.=  3.74415083686927E-08
(PID.TID 0000.0001)  cg2d: iter=    80 ; resid.=  2.87676615106545E-08
(PID.TID 0000.0001)  cg2d: iter=    81 ; resid.=  2.22931139348250E-08
(PID.TID 0000.0001)  cg2d: iter=    82 ; resid.=  1.91879984614003E-08
(PID.TID 0000.0001)  cg2d: iter=    83 ; resid.=  1.67450050759610E-08
(PID.TID 0000.0001)  cg2d: iter=    84 ; resid.=  1.35382493617332E-08
(PID.TID 0000.0001)  cg2d: iter=    85 ; resid.=  9.92452339316416E-09
(PID.TID 0000.0001)  cg2d: iter=    86 ; resid.=  7.36817037556993E-09
(PID.TID 0000.0001)  cg2d: iter=    87 ; resid.=  6.22783806482673E-09
(PID.TID 0000.0001)  cg2d: iter=    88 ; resid.=  5.19681662741445E-09
(PID.TID 0000.0001)  cg2d: iter=    89 ; resid.=  4.24102646655034E-09
(PID.TID 0000.0001)  cg2d: iter=    90 ; resid.=  3.44224170820758E-09
(PID.TID 0000.0001)  cg2d: iter=    91 ; resid.=  2.89412675069278E-09
(PID.TID 0000.0001)  cg2d: iter=    92 ; resid.=  2.52025900696465E-09
(PID.TID 0000.0001)  cg2d: iter=    93 ; resid.=  1.91118090988033E-09
(PID.TID 0000.0001)  cg2d: iter=    94 ; resid.=  1.46661266397172E-09
(PID.TID 0000.0001)  cg2d: iter=    95 ; resid.=  1.19211401064576E-09
(PID.TID 0000.0001)  cg2d: iter=    96 ; resid.=  9.64324327377048E-10
(PID.TID 0000.0001)  cg2d: iter=    97 ; resid.=  7.74451910628103E-10
(PID.TID 0000.0001)  cg2d: iter=    98 ; resid.=  6.54242505629880E-10
(PID.TID 0000.0001)  cg2d: iter=    99 ; resid.=  5.76261831911087E-10
(PID.TID 0000.0001)  cg2d: iter=   100 ; resid.=  4.95243567736435E-10
(PID.TID 0000.0001)  cg2d: iter=   101 ; resid.=  4.04446520405343E-10
(PID.TID 0000.0001)  cg2d: iter=   102 ; resid.=  3.14145759534995E-10
(PID.TID 0000.0001)  cg2d: iter=   103 ; resid.=  2.41870865141676E-10
(PID.TID 0000.0001)  cg2d: iter=   104 ; resid.=  1.85192167394545E-10
(PID.TID 0000.0001)  cg2d: iter=   105 ; resid.=  1.33800834558990E-10
(PID.TID 0000.0001)  cg2d: iter=   106 ; resid.=  9.49426404161871E-11
(PID.TID 0000.0001)  cg2d: iter=   107 ; resid.=  7.38481766242884E-11
(PID.TID 0000.0001)  cg2d: iter=   108 ; resid.=  5.89078201505134E-11
(PID.TID 0000.0001)  cg2d: iter=   109 ; resid.=  4.89339844585743E-11
(PID.TID 0000.0001)  cg2d: iter=   110 ; resid.=  3.76409217404086E-11
(PID.TID 0000.0001)  cg2d: iter=   111 ; resid.=  2.79640861665584E-11
(PID.TID 0000.0001)  cg2d: iter=   112 ; resid.=  2.17720136717320E-11
(PID.TID 0000.0001)  cg2d: iter=   113 ; resid.=  1.70732345310665E-11
(PID.TID 0000.0001)  cg2d: iter=   114 ; resid.=  1.30802058039075E-11
(PID.TID 0000.0001)  cg2d: iter=   115 ; resid.=  1.03934490223072E-11
(PID.TID 0000.0001)  cg2d: iter=   116 ; resid.=  8.37593529397712E-12
(PID.TID 0000.0001)  cg2d: iter=   117 ; resid.=  6.41083446825084E-12
(PID.TID 0000.0001)  cg2d: iter=   118 ; resid.=  4.66543474193801E-12
(PID.TID 0000.0001)  cg2d: iter=   119 ; resid.=  3.12771678472469E-12
(PID.TID 0000.0001)  cg2d: iter=   120 ; resid.=  2.23322565778933E-12
(PID.TID 0000.0001)  cg2d: iter=   121 ; resid.=  1.63477356528062E-12
(PID.TID 0000.0001)  cg2d: iter=   122 ; resid.=  1.21282953560120E-12
(PID.TID 0000.0001)  cg2d: iter=   123 ; resid.=  9.96794875322265E-13
(PID.TID 0000.0001)  cg2d: iter=   124 ; resid.=  8.16479516313815E-13
(PID.TID 0000.0001)  cg2d: iter=   125 ; resid.=  6.39136972935648E-13
(PID.TID 0000.0001)  cg2d: iter=   126 ; resid.=  5.01546425675680E-13
(PID.TID 0000.0001)  cg2d: iter=   127 ; resid.=  3.73268881473323E-13
(PID.TID 0000.0001)  cg2d: iter=   128 ; resid.=  2.50513788799539E-13
(PID.TID 0000.0001)  cg2d: iter=   129 ; resid.=  1.82438942398490E-13
(PID.TID 0000.0001)  cg2d: iter=   130 ; resid.=  1.46433451400127E-13
(PID.TID 0000.0001)  cg2d: iter=   131 ; resid.=  1.19719284048637E-13
(PID.TID 0000.0001)  cg2d: iter=   132 ; resid.=  9.65509477680755E-14
DEBUG_STATS_RL:    cg2d_x (SOLVE_FOR_PRESSURE)  min= -1.65102653260036E+01
DEBUG_STATS_RL:    cg2d_x (SOLVE_FOR_PRESSURE)  max=  9.10644951160332E+00
DEBUG_STATS_RL:    cg2d_x (SOLVE_FOR_PRESSURE) mean= -1.64511056434539E+00
DEBUG_STATS_RL:    cg2d_x (SOLVE_FOR_PRESSURE) S.D.=  6.41289051362886E+00
(PID.TID 0000.0001)      cg2d_init_res =   4.42483868283108E-01
(PID.TID 0000.0001)      cg2d_iters(min,last) =      -1     132
(PID.TID 0000.0001)      cg2d_last_res =   9.65509477680755E-14
(PID.TID 0000.0001) // =======================================================
(PID.TID 0000.0001) // Begin MONITOR dynamic field statistics
(PID.TID 0000.0001) // =======================================================
(PID.TID 0000.0001) %MON time_tsnumber                =                    24
(PID.TID 0000.0001) %MON time_secondsf                =   2.0736000000000E+06
(PID.TID 0000.0001) %MON dynstat_eta_max              =   9.2828231514818E-01
(PID.TID 0000.0001) %MON dynstat_eta_min              =  -1.6830036010197E+00
(PID.TID 0000.0001) %MON dynstat_eta_mean             =  -1.7532676059179E-03
(PID.TID 0000.0001) %MON dynstat_eta_sd               =   5.7464491923607E-01
(PID.TID 0000.0001) %MON dynstat_eta_del2             =   1.9848123649270E-03
(PID.TID 0000.0001) %MON dynstat_uvel_max             =   1.3816964127876E-01
(PID.TID 0000.0001) %MON dynstat_uvel_min             =  -1.5516993898746E-01
(PID.TID 0000.0001) %MON dynstat_uvel_mean            =   1.2536154473691E-03
(PID.TID 0000.0001) %MON dynstat_uvel_sd              =   1.2029704286417E-02
(PID.TID 0000.0001) %MON dynstat_uvel_del2            =   8.0860152588635E-05
(PID.TID 0000.0001) %MON dynstat_vvel_max             =   1.4681189195641E-01
(PID.TID 0000.0001) %MON dynstat_vvel_min             =  -1.3634691219537E-01
(PID.TID 0000.0001) %MON dynstat_vvel_mean            =   2.1354649811662E-05
(PID.TID 0000.0001) %MON dynstat_vvel_sd              =   9.7309094313481E-03
(PID.TID 0000.0001) %MON dynstat_vvel_del2            =   8.3025479017935E-05
(PID.TID 0000.0001) %MON dynstat_wvel_max             =   1.1886845647645E-04
(PID.TID 0000.0001) %MON dynstat_wvel_min             =  -1.3205759526114E-04
(PID.TID 0000.0001) %MON dynstat_wvel_mean            =   2.5334978170721E-22
(PID.TID 0000.0001) %MON dynstat_wvel_sd              =   1.5787045239951E-05
(PID.TID 0000.0001) %MON dynstat_wvel_del2            =   1.7340536438754E-07
(PID.TID 0000.0001) %MON dynstat_theta_max            =   2.9886759158714E+01
(PID.TID 0000.0001) %MON dynstat_theta_min            =  -2.0131824788435E+00
(PID.TID 0000.0001) %MON dynstat_theta_mean           =   3.6206631057238E+00
(PID.TID 0000.0001) %MON dynstat_theta_sd             =   4.4163391702484E+00
(PID.TID 0000.0001) %MON dynstat_theta_del2           =   4.8388868496731E-03
(PID.TID 0000.0001) %MON dynstat_salt_max             =   3.7446425464846E+01
(PID.TID 0000.0001) %MON dynstat_salt_min             =   2.9794183073646E+01
(PID.TID 0000.0001) %MON dynstat_salt_mean            =   3.4717981785359E+01
(PID.TID 0000.0001) %MON dynstat_salt_sd              =   2.9623375156905E-01
(PID.TID 0000.0001) %MON dynstat_salt_del2            =   1.0067975680445E-03
(PID.TID 0000.0001) %MON dynstat_sst_max              =   2.9886759158714E+01
(PID.TID 0000.0001) %MON dynstat_sst_min              =  -2.0131824788435E+00
(PID.TID 0000.0001) %MON dynstat_sst_mean             =   1.8704389922548E+01
(PID.TID 0000.0001) %MON dynstat_sst_sd               =   9.0600337243397E+00
(PID.TID 0000.0001) %MON dynstat_sst_del2             =   2.6435249050040E-02
(PID.TID 0000.0001) %MON dynstat_sss_max              =   3.7431545324471E+01
(PID.TID 0000.0001) %MON dynstat_sss_min              =   2.9794183073646E+01
(PID.TID 0000.0001) %MON dynstat_sss_mean             =   3.4850311262975E+01
(PID.TID 0000.0001) %MON dynstat_sss_sd               =   9.7351069199666E-01
(PID.TID 0000.0001) %MON dynstat_sss_del2             =   7.9489064464659E-03
(PID.TID 0000.0001) %MON forcing_qnet_max             =   4.1506092325846E+02
(PID.TID 0000.0001) %MON forcing_qnet_min             =  -1.7810339253743E+02
(PID.TID 0000.0001) %MON forcing_qnet_mean            =  -1.5833252661817E+01
(PID.TID 0000.0001) %MON forcing_qnet_sd              =   1.0134792828630E+02
(PID.TID 0000.0001) %MON forcing_qnet_del2            =   9.9398501080315E-01
(PID.TID 0000.0001) %MON forcing_qsw_max              =   0.0000000000000E+00
(PID.TID 0000.0001) %MON forcing_qsw_min              =   0.0000000000000E+00
(PID.TID 0000.0001) %MON forcing_qsw_mean             =   0.0000000000000E+00
(PID.TID 0000.0001) %MON forcing_qsw_sd               =   0.0000000000000E+00
(PID.TID 0000.0001) %MON forcing_qsw_del2             =   0.0000000000000E+00
(PID.TID 0000.0001) %MON forcing_empmr_max            =   7.9661521112939E-05
(PID.TID 0000.0001) %MON forcing_empmr_min            =  -7.6793110300362E-05
(PID.TID 0000.0001) %MON forcing_empmr_mean           =   9.2839624019029E-07
(PID.TID 0000.0001) %MON forcing_empmr_sd             =   2.8422949327368E-05
(PID.TID 0000.0001) %MON forcing_empmr_del2           =   3.5924996282303E-07
(PID.TID 0000.0001) %MON forcing_fu_max               =   2.7721027731895E-01
(PID.TID 0000.0001) %MON forcing_fu_min               =  -1.7921402752399E-01
(PID.TID 0000.0001) %MON forcing_fu_mean              =   1.6436136876318E-02
(PID.TID 0000.0001) %MON forcing_fu_sd                =   9.0054319436731E-02
(PID.TID 0000.0001) %MON forcing_fu_del2              =   6.7829591148946E-04
(PID.TID 0000.0001) %MON forcing_fv_max               =   2.0745374461015E-01
(PID.TID 0000.0001) %MON forcing_fv_min               =  -1.7020650207996E-01
(PID.TID 0000.0001) %MON forcing_fv_mean              =  -5.7809849932265E-03
(PID.TID 0000.0001) %MON forcing_fv_sd                =   4.6066374404308E-02
(PID.TID 0000.0001) %MON forcing_fv_del2              =   4.6763919861826E-04
(PID.TID 0000.0001) %MON trAdv_CFL_u_max              =   3.8624024517721E-02
(PID.TID 0000.0001) %MON trAdv_CFL_v_max              =   3.0556757545941E-02
(PID.TID 0000.0001) %MON trAdv_CFL_w_max              =   4.5397167681443E-02
(PID.TID 0000.0001) %MON advcfl_uvel_max              =   3.6122360548753E-02
(PID.TID 0000.0001) %MON advcfl_vvel_max              =   2.8523196027465E-02
(PID.TID 0000.0001) %MON advcfl_wvel_max              =   3.7686921829895E-02
(PID.TID 0000.0001) %MON advcfl_W_hf_max              =   4.5762690793444E-02
(PID.TID 0000.0001) %MON pe_b_mean                    =   4.2255610955903E-04
(PID.TID 0000.0001) %MON ke_max                       =   1.2683314427856E-02
(PID.TID 0000.0001) %MON ke_mean                      =   1.0897060779752E-04
(PID.TID 0000.0001) %MON ke_vol                       =   1.3226782436723E+18
(PID.TID 0000.0001) %MON vort_r_min                   =  -2.2405410419446E-07
(PID.TID 0000.0001) %MON vort_r_max                   =   3.4770607112800E-07
(PID.TID 0000.0001) %MON vort_a_mean                  =  -2.5274807105182E-05
(PID.TID 0000.0001) %MON vort_a_sd                    =   7.3604522009354E-05
(PID.TID 0000.0001) %MON vort_p_mean                  =  -3.1845655431220E-05
(PID.TID 0000.0001) %MON vort_p_sd                    =   1.3162513649516E-04
(PID.TID 0000.0001) %MON surfExpan_theta_mean         =  -7.6847163867977E-08
(PID.TID 0000.0001) %MON surfExpan_salt_mean          =   5.8888247982837E-08
(PID.TID 0000.0001) // =======================================================
(PID.TID 0000.0001) // End MONITOR dynamic field statistics
(PID.TID 0000.0001) // =======================================================
 EXTERNAL_FIELDS_LOAD,        24 : iP,iLd,i0,i1=    1    2    1    2 ; Wght=  0.7000000000  0.3000000000
 EXTERNAL_FIELDS_LOAD: (fu0,1),fu,fv= -3.5633E-02 -1.4435E-02 -2.9273E-02 -4.5370E-02
 EXTERNAL_FIELDS_LOAD: SST,SSS,Q,E-P=  5.1134E-01  3.4627E+01  2.5818E+02  1.0659E-05
DEBUG_STATS_RL:          Uvel (THERMODYNAMICS)  min= -1.55169938987458E-01
DEBUG_STATS_RL:          Uvel (THERMODYNAMICS)  max=  1.38169641278760E-01
DEBUG_STATS_RL:          Uvel (THERMODYNAMICS) mean=  3.54283550062684E-03
DEBUG_STATS_RL:          Uvel (THERMODYNAMICS) S.D.=  1.93277568219218E-02
DEBUG_STATS_RL:          Vvel (THERMODYNAMICS)  min= -1.36346912195374E-01
DEBUG_STATS_RL:          Vvel (THERMODYNAMICS)  max=  1.46811891956411E-01
DEBUG_STATS_RL:          Vvel (THERMODYNAMICS) mean=  1.88311751366565E-03
DEBUG_STATS_RL:          Vvel (THERMODYNAMICS) S.D.=  1.61549285579863E-02
DEBUG_STATS_RL:          Wvel (THERMODYNAMICS)  min= -1.32057595261143E-04
DEBUG_STATS_RL:          Wvel (THERMODYNAMICS)  max=  1.18868456476452E-04
DEBUG_STATS_RL:          Wvel (THERMODYNAMICS) mean=  4.41082626398757E-07
DEBUG_STATS_RL:          Wvel (THERMODYNAMICS) S.D.=  1.43086379873952E-05
DEBUG_STATS_RL:         Theta (THERMODYNAMICS)  min= -2.01242506865249E+00
DEBUG_STATS_RL:         Theta (THERMODYNAMICS)  max=  2.98983431010363E+01
DEBUG_STATS_RL:         Theta (THERMODYNAMICS) mean=  3.20886304699607E+00
DEBUG_STATS_RL:         Theta (THERMODYNAMICS) S.D.=  5.85808141885017E+00
DEBUG_STATS_RL:          Salt (THERMODYNAMICS)  min= -1.04083408558608E-17
DEBUG_STATS_RL:          Salt (THERMODYNAMICS)  max=  3.74475576540624E+01
DEBUG_STATS_RL:          Salt (THERMODYNAMICS) mean=  1.88451001103459E+01
DEBUG_STATS_RL:          Salt (THERMODYNAMICS) S.D.=  1.73005901781242E+01
DEBUG_STATS_RL:         GtNm1 (THERMODYNAMICS)  min= -4.29142651560506E-06
DEBUG_STATS_RL:         GtNm1 (THERMODYNAMICS)  max=  2.62744226218796E-06
DEBUG_STATS_RL:         GtNm1 (THERMODYNAMICS) mean= -1.75523303308454E-09
DEBUG_STATS_RL:         GtNm1 (THERMODYNAMICS) S.D.=  2.32243591719314E-07
DEBUG_STATS_RL:         GsNm1 (THERMODYNAMICS)  min= -9.07809386748636E-07
DEBUG_STATS_RL:         GsNm1 (THERMODYNAMICS)  max=  7.45148546282924E-07
DEBUG_STATS_RL:         GsNm1 (THERMODYNAMICS) mean= -6.27885116209400E-10
DEBUG_STATS_RL:         GsNm1 (THERMODYNAMICS) S.D.=  2.17932857638312E-08
DEBUG_STATS_RL:                EtaN (DYNAMICS)  min= -1.68300360101972E+00
DEBUG_STATS_RL:                EtaN (DYNAMICS)  max=  9.28282315148176E-01
DEBUG_STATS_RL:                EtaN (DYNAMICS) mean= -1.67697305233984E-01
DEBUG_STATS_RL:                EtaN (DYNAMICS) S.D.=  6.53709532480005E-01
DEBUG_STATS_RL:                Uvel (DYNAMICS)  min= -1.55169938987458E-01
DEBUG_STATS_RL:                Uvel (DYNAMICS)  max=  1.38169641278760E-01
DEBUG_STATS_RL:                Uvel (DYNAMICS) mean=  3.54283550062684E-03
DEBUG_STATS_RL:                Uvel (DYNAMICS) S.D.=  1.93277568219218E-02
DEBUG_STATS_RL:                Vvel (DYNAMICS)  min= -1.36346912195374E-01
DEBUG_STATS_RL:                Vvel (DYNAMICS)  max=  1.46811891956411E-01
DEBUG_STATS_RL:                Vvel (DYNAMICS) mean=  1.88311751366565E-03
DEBUG_STATS_RL:                Vvel (DYNAMICS) S.D.=  1.61549285579863E-02
DEBUG_STATS_RL:                Wvel (DYNAMICS)  min= -1.32057595261143E-04
DEBUG_STATS_RL:                Wvel (DYNAMICS)  max=  1.18868456476452E-04
DEBUG_STATS_RL:                Wvel (DYNAMICS) mean=  4.41082626398757E-07
DEBUG_STATS_RL:                Wvel (DYNAMICS) S.D.=  1.43086379873952E-05
DEBUG_STATS_RL:               Theta (DYNAMICS)  min= -2.01242506865249E+00
DEBUG_STATS_RL:               Theta (DYNAMICS)  max=  2.98983431010363E+01
DEBUG_STATS_RL:               Theta (DYNAMICS) mean=  3.20886304699607E+00
DEBUG_STATS_RL:               Theta (DYNAMICS) S.D.=  5.85808141885017E+00
DEBUG_STATS_RL:                Salt (DYNAMICS)  min= -1.04083408558608E-17
DEBUG_STATS_RL:                Salt (DYNAMICS)  max=  3.74475576540624E+01
DEBUG_STATS_RL:                Salt (DYNAMICS) mean=  1.88451001103459E+01
DEBUG_STATS_RL:                Salt (DYNAMICS) S.D.=  1.73005901781242E+01
DEBUG_STATS_RL:                  Gu (DYNAMICS)  min= -1.59755325594551E-01
DEBUG_STATS_RL:                  Gu (DYNAMICS)  max=  1.35653150494831E-01
DEBUG_STATS_RL:                  Gu (DYNAMICS) mean=  2.96661291499556E-03
DEBUG_STATS_RL:                  Gu (DYNAMICS) S.D.=  1.88349293505161E-02
DEBUG_STATS_RL:                  Gv (DYNAMICS)  min= -1.47671131669852E-01
DEBUG_STATS_RL:                  Gv (DYNAMICS)  max=  1.58908711786717E-01
DEBUG_STATS_RL:                  Gv (DYNAMICS) mean=  3.89327286420830E-03
DEBUG_STATS_RL:                  Gv (DYNAMICS) S.D.=  1.76799145333831E-02
DEBUG_STATS_RL:               GuNm1 (DYNAMICS)  min= -7.74285832064915E-06
DEBUG_STATS_RL:               GuNm1 (DYNAMICS)  max=  7.79224486966873E-06
DEBUG_STATS_RL:               GuNm1 (DYNAMICS) mean= -1.29071364342449E-08
DEBUG_STATS_RL:               GuNm1 (DYNAMICS) S.D.=  1.18240724154393E-06
DEBUG_STATS_RL:               GvNm1 (DYNAMICS)  min= -1.02388052854872E-05
DEBUG_STATS_RL:               GvNm1 (DYNAMICS)  max=  1.70198722574563E-05
DEBUG_STATS_RL:               GvNm1 (DYNAMICS) mean=  7.67344621377307E-07
DEBUG_STATS_RL:               GvNm1 (DYNAMICS) S.D.=  2.62533663614873E-06
DEBUG_STATS_RL:               GtNm1 (DYNAMICS)  min= -4.29142651560506E-06
DEBUG_STATS_RL:               GtNm1 (DYNAMICS)  max=  2.62744226218796E-06
DEBUG_STATS_RL:               GtNm1 (DYNAMICS) mean= -1.75523303308454E-09
DEBUG_STATS_RL:               GtNm1 (DYNAMICS) S.D.=  2.32243591719314E-07
DEBUG_STATS_RL:               GsNm1 (DYNAMICS)  min= -9.07809386748636E-07
DEBUG_STATS_RL:               GsNm1 (DYNAMICS)  max=  7.45148546282924E-07
DEBUG_STATS_RL:               GsNm1 (DYNAMICS) mean= -6.27885116209400E-10
DEBUG_STATS_RL:               GsNm1 (DYNAMICS) S.D.=  2.17932857638312E-08
DEBUG_STATS_RL:    cg2d_b (SOLVE_FOR_PRESSURE)  min= -2.29632907610140E+04
DEBUG_STATS_RL:    cg2d_b (SOLVE_FOR_PRESSURE)  max=  1.80326891783757E+04
DEBUG_STATS_RL:    cg2d_b (SOLVE_FOR_PRESSURE) mean=  1.75471303499400E+00
DEBUG_STATS_RL:    cg2d_b (SOLVE_FOR_PRESSURE) S.D.=  3.65460329557778E+03
 cg2d: Sum(rhs),rhsMax =   1.76898020335487E-01  1.50829041968851E+00
(PID.TID 0000.0001)  cg2d: iter=     1 ; resid.=  1.16537657688651E-01
(PID.TID 0000.0001)  cg2d: iter=     2 ; resid.=  6.19812608927873E-02
(PID.TID 0000.0001)  cg2d: iter=     3 ; resid.=  5.07008732102464E-02
(PID.TID 0000.0001)  cg2d: iter=     4 ; resid.=  5.01286037101507E-02
(PID.TID 0000.0001)  cg2d: iter=     5 ; resid.=  4.79510611928027E-02
(PID.TID 0000.0001)  cg2d: iter=     6 ; resid.=  4.31514092828206E-02
(PID.TID 0000.0001)  cg2d: iter=     7 ; resid.=  3.73148190124038E-02
(PID.TID 0000.0001)  cg2d: iter=     8 ; resid.=  2.96498198338609E-02
(PID.TID 0000.0001)  cg2d: iter=     9 ; resid.=  2.29195340079314E-02
(PID.TID 0000.0001)  cg2d: iter=    10 ; resid.=  1.70423790280363E-02
(PID.TID 0000.0001)  cg2d: iter=    11 ; resid.=  1.27705238945708E-02
(PID.TID 0000.0001)  cg2d: iter=    12 ; resid.=  1.02216298900142E-02
(PID.TID 0000.0001)  cg2d: iter=    13 ; resid.=  8.76929727436234E-03
(PID.TID 0000.0001)  cg2d: iter=    14 ; resid.=  7.07888754172750E-03
(PID.TID 0000.0001)  cg2d: iter=    15 ; resid.=  5.84729938896835E-03
(PID.TID 0000.0001)  cg2d: iter=    16 ; resid.=  4.41341143720079E-03
(PID.TID 0000.0001)  cg2d: iter=    17 ; resid.=  3.65458080539198E-03
(PID.TID 0000.0001)  cg2d: iter=    18 ; resid.=  3.35888538628719E-03
(PID.TID 0000.0001)  cg2d: iter=    19 ; resid.=  2.96299057744096E-03
(PID.TID 0000.0001)  cg2d: iter=    20 ; resid.=  2.40636824900823E-03
(PID.TID 0000.0001)  cg2d: iter=    21 ; resid.=  1.83879506122884E-03
(PID.TID 0000.0001)  cg2d: iter=    22 ; resid.=  1.43232986994572E-03
(PID.TID 0000.0001)  cg2d: iter=    23 ; resid.=  1.16918520275588E-03
(PID.TID 0000.0001)  cg2d: iter=    24 ; resid.=  1.06373911131424E-03
(PID.TID 0000.0001)  cg2d: iter=    25 ; resid.=  9.32147428559766E-04
(PID.TID 0000.0001)  cg2d: iter=    26 ; resid.=  7.60206261857641E-04
(PID.TID 0000.0001)  cg2d: iter=    27 ; resid.=  6.10545045727811E-04
(PID.TID 0000.0001)  cg2d: iter=    28 ; resid.=  5.29594422526928E-04
(PID.TID 0000.0001)  cg2d: iter=    29 ; resid.=  4.57514436552928E-04
(PID.TID 0000.0001)  cg2d: iter=    30 ; resid.=  3.81893125827930E-04
(PID.TID 0000.0001)  cg2d: iter=    31 ; resid.=  3.14878933704354E-04
(PID.TID 0000.0001)  cg2d: iter=    32 ; resid.=  2.69328202831091E-04
(PID.TID 0000.0001)  cg2d: iter=    33 ; resid.=  2.18667036401852E-04
(PID.TID 0000.0001)  cg2d: iter=    34 ; resid.=  1.64564594719253E-04
(PID.TID 0000.0001)  cg2d: iter=    35 ; resid.=  1.23979213725540E-04
(PID.TID 0000.0001)  cg2d: iter=    36 ; resid.=  9.86150242951892E-05
(PID.TID 0000.0001)  cg2d: iter=    37 ; resid.=  8.23503758833371E-05
(PID.TID 0000.0001)  cg2d: iter=    38 ; resid.=  6.98111821637361E-05
(PID.TID 0000.0001)  cg2d: iter=    39 ; resid.=  6.09100285206204E-05
(PID.TID 0000.0001)  cg2d: iter=    40 ; resid.=  5.49028236279486E-05
(PID.TID 0000.0001)  cg2d: iter=    41 ; resid.=  4.81508760140611E-05
(PID.TID 0000.0001)  cg2d: iter=    42 ; resid.=  4.13814793017086E-05
(PID.TID 0000.0001)  cg2d: iter=    43 ; resid.=  3.62792250115270E-05
(PID.TID 0000.0001)  cg2d: iter=    44 ; resid.=  2.94190754074126E-05
(PID.TID 0000.0001)  cg2d: iter=    45 ; resid.=  2.27043025204003E-05
(PID.TID 0000.0001)  cg2d: iter=    46 ; resid.=  1.67301249985164E-05
(PID.TID 0000.0001)  cg2d: iter=    47 ; resid.=  1.27793489324601E-05
(PID.TID 0000.0001)  cg2d: iter=    48 ; resid.=  1.03978997547942E-05
(PID.TID 0000.0001)  cg2d: iter=    49 ; resid.=  8.80965397541684E-06
(PID.TID 0000.0001)  cg2d: iter=    50 ; resid.=  7.86579456481210E-06
(PID.TID 0000.0001)  cg2d: iter=    51 ; resid.=  6.87207443967321E-06
(PID.TID 0000.0001)  cg2d: iter=    52 ; resid.=  5.71944075276123E-06
(PID.TID 0000.0001)  cg2d: iter=    53 ; resid.=  4.79403094445369E-06
(PID.TID 0000.0001)  cg2d: iter=    54 ; resid.=  4.47338513793687E-06
(PID.TID 0000.0001)  cg2d: iter=    55 ; resid.=  4.34073272750713E-06
(PID.TID 0000.0001)  cg2d: iter=    56 ; resid.=  3.86725204263036E-06
(PID.TID 0000.0001)  cg2d: iter=    57 ; resid.=  3.00709856959707E-06
(PID.TID 0000.0001)  cg2d: iter=    58 ; resid.=  2.31509453343006E-06
(PID.TID 0000.0001)  cg2d: iter=    59 ; resid.=  1.82141767698271E-06
(PID.TID 0000.0001)  cg2d: iter=    60 ; resid.=  1.49271183739010E-06
(PID.TID 0000.0001)  cg2d: iter=    61 ; resid.=  1.31230570208279E-06
(PID.TID 0000.0001)  cg2d: iter=    62 ; resid.=  1.08309459031472E-06
(PID.TID 0000.0001)  cg2d: iter=    63 ; resid.=  8.83749508467403E-07
(PID.TID 0000.0001)  cg2d: iter=    64 ; resid.=  6.99725491433082E-07
(PID.TID 0000.0001)  cg2d: iter=    65 ; resid.=  5.53552414355478E-07
(PID.TID 0000.0001)  cg2d: iter=    66 ; resid.=  4.45924484388198E-07
(PID.TID 0000.0001)  cg2d: iter=    67 ; resid.=  3.44253454847412E-07
(PID.TID 0000.0001)  cg2d: iter=    68 ; resid.=  2.80758547848060E-07
(PID.TID 0000.0001)  cg2d: iter=    69 ; resid.=  2.24516011417358E-07
(PID.TID 0000.0001)  cg2d: iter=    70 ; resid.=  1.87691363637858E-07
(PID.TID 0000.0001)  cg2d: iter=    71 ; resid.=  1.65998353968244E-07
(PID.TID 0000.0001)  cg2d: iter=    72 ; resid.=  1.41440774990371E-07
(PID.TID 0000.0001)  cg2d: iter=    73 ; resid.=  1.30128768551377E-07
(PID.TID 0000.0001)  cg2d: iter=    74 ; resid.=  1.19543064786949E-07
(PID.TID 0000.0001)  cg2d: iter=    75 ; resid.=  1.06964475149925E-07
(PID.TID 0000.0001)  cg2d: iter=    76 ; resid.=  9.05286014787648E-08
(PID.TID 0000.0001)  cg2d: iter=    77 ; resid.=  7.58574630537216E-08
(PID.TID 0000.0001)  cg2d: iter=    78 ; resid.=  5.84769450686813E-08
(PID.TID 0000.0001)  cg2d: iter=    79 ; resid.=  4.53792060622486E-08
(PID.TID 0000.0001)  cg2d: iter=    80 ; resid.=  3.37640995141471E-08
(PID.TID 0000.0001)  cg2d: iter=    81 ; resid.=  2.52744726604501E-08
(PID.TID 0000.0001)  cg2d: iter=    82 ; resid.=  2.11000848529551E-08
(PID.TID 0000.0001)  cg2d: iter=    83 ; resid.=  1.79249046307946E-08
(PID.TID 0000.0001)  cg2d: iter=    84 ; resid.=  1.38806605588806E-08
(PID.TID 0000.0001)  cg2d: iter=    85 ; resid.=  9.63771585198928E-09
(PID.TID 0000.0001)  cg2d: iter=    86 ; resid.=  6.73017918677130E-09
(PID.TID 0000.0001)  cg2d: iter=    87 ; resid.=  5.40984651809163E-09
(PID.TID 0000.0001)  cg2d: iter=    88 ; resid.=  4.60771191986376E-09
(PID.TID 0000.0001)  cg2d: iter=    89 ; resid.=  3.88473231639842E-09
(PID.TID 0000.0001)  cg2d: iter=    90 ; resid.=  3.22093418101230E-09
(PID.TID 0000.0001)  cg2d: iter=    91 ; resid.=  2.77990942832204E-09
(PID.TID 0000.0001)  cg2d: iter=    92 ; resid.=  2.55597124708337E-09
(PID.TID 0000.0001)  cg2d: iter=    93 ; resid.=  2.02257290213871E-09
(PID.TID 0000.0001)  cg2d: iter=    94 ; resid.=  1.53580449189533E-09
(PID.TID 0000.0001)  cg2d: iter=    95 ; resid.=  1.20416516681695E-09
(PID.TID 0000.0001)  cg2d: iter=    96 ; resid.=  9.81945307052100E-10
(PID.TID 0000.0001)  cg2d: iter=    97 ; resid.=  7.98115937257198E-10
(PID.TID 0000.0001)  cg2d: iter=    98 ; resid.=  6.48386876988560E-10
(PID.TID 0000.0001)  cg2d: iter=    99 ; resid.=  5.23700420680289E-10
(PID.TID 0000.0001)  cg2d: iter=   100 ; resid.=  4.29466488470410E-10
(PID.TID 0000.0001)  cg2d: iter=   101 ; resid.=  3.53515534802730E-10
(PID.TID 0000.0001)  cg2d: iter=   102 ; resid.=  2.79150555793429E-10
(PID.TID 0000.0001)  cg2d: iter=   103 ; resid.=  2.12295068584343E-10
(PID.TID 0000.0001)  cg2d: iter=   104 ; resid.=  1.65427899346103E-10
(PID.TID 0000.0001)  cg2d: iter=   105 ; resid.=  1.25031220341332E-10
(PID.TID 0000.0001)  cg2d: iter=   106 ; resid.=  9.17255005987544E-11
(PID.TID 0000.0001)  cg2d: iter=   107 ; resid.=  7.02375887350634E-11
(PID.TID 0000.0001)  cg2d: iter=   108 ; resid.=  5.46984370030195E-11
(PID.TID 0000.0001)  cg2d: iter=   109 ; resid.=  4.49310876270461E-11
(PID.TID 0000.0001)  cg2d: iter=   110 ; resid.=  3.38622119323002E-11
(PID.TID 0000.0001)  cg2d: iter=   111 ; resid.=  2.43218763671372E-11
(PID.TID 0000.0001)  cg2d: iter=   112 ; resid.=  1.76907830416174E-11
(PID.TID 0000.0001)  cg2d: iter=   113 ; resid.=  1.32143253007521E-11
(PID.TID 0000.0001)  cg2d: iter=   114 ; resid.=  1.01144701721168E-11
(PID.TID 0000.0001)  cg2d: iter=   115 ; resid.=  8.01820703776239E-12
(PID.TID 0000.0001)  cg2d: iter=   116 ; resid.=  6.59422899774870E-12
(PID.TID 0000.0001)  cg2d: iter=   117 ; resid.=  5.19231107690569E-12
(PID.TID 0000.0001)  cg2d: iter=   118 ; resid.=  3.97660114023409E-12
(PID.TID 0000.0001)  cg2d: iter=   119 ; resid.=  2.80960421512980E-12
(PID.TID 0000.0001)  cg2d: iter=   120 ; resid.=  2.08124288758126E-12
(PID.TID 0000.0001)  cg2d: iter=   121 ; resid.=  1.58562077480270E-12
(PID.TID 0000.0001)  cg2d: iter=   122 ; resid.=  1.22491590387708E-12
(PID.TID 0000.0001)  cg2d: iter=   123 ; resid.=  9.96598427455469E-13
(PID.TID 0000.0001)  cg2d: iter=   124 ; resid.=  8.06559052098241E-13
(PID.TID 0000.0001)  cg2d: iter=   125 ; resid.=  6.28953199460579E-13
(PID.TID 0000.0001)  cg2d: iter=   126 ; resid.=  4.84050580112715E-13
(PID.TID 0000.0001)  cg2d: iter=   127 ; resid.=  3.38493970420152E-13
(PID.TID 0000.0001)  cg2d: iter=   128 ; resid.=  2.11851532594046E-13
(PID.TID 0000.0001)  cg2d: iter=   129 ; resid.=  1.45884783846539E-13
(PID.TID 0000.0001)  cg2d: iter=   130 ; resid.=  1.15237847380651E-13
(PID.TID 0000.0001)  cg2d: iter=   131 ; resid.=  9.49604171574957E-14
DEBUG_STATS_RL:    cg2d_x (SOLVE_FOR_PRESSURE)  min= -1.65752362833287E+01
DEBUG_STATS_RL:    cg2d_x (SOLVE_FOR_PRESSURE)  max=  8.99057071489496E+00
DEBUG_STATS_RL:    cg2d_x (SOLVE_FOR_PRESSURE) mean= -1.63974730252524E+00
DEBUG_STATS_RL:    cg2d_x (SOLVE_FOR_PRESSURE) S.D.=  6.38291869302225E+00
(PID.TID 0000.0001)      cg2d_init_res =   4.33034356149041E-01
(PID.TID 0000.0001)      cg2d_iters(min,last) =      -1     131
(PID.TID 0000.0001)      cg2d_last_res =   9.49604171574957E-14
(PID.TID 0000.0001) // =======================================================
(PID.TID 0000.0001) // Begin MONITOR dynamic field statistics
(PID.TID 0000.0001) // =======================================================
(PID.TID 0000.0001) %MON time_tsnumber                =                    25
(PID.TID 0000.0001) %MON time_secondsf                =   2.1600000000000E+06
(PID.TID 0000.0001) %MON dynstat_eta_max              =   9.1647000151831E-01
(PID.TID 0000.0001) %MON dynstat_eta_min              =  -1.6896265324494E+00
(PID.TID 0000.0001) %MON dynstat_eta_mean             =  -1.8308254747827E-03
(PID.TID 0000.0001) %MON dynstat_eta_sd               =   5.7098397877985E-01
(PID.TID 0000.0001) %MON dynstat_eta_del2             =   2.0214377406917E-03
(PID.TID 0000.0001) %MON dynstat_uvel_max             =   1.2714467509047E-01
(PID.TID 0000.0001) %MON dynstat_uvel_min             =  -1.5858766169457E-01
(PID.TID 0000.0001) %MON dynstat_uvel_mean            =   1.2249505123572E-03
(PID.TID 0000.0001) %MON dynstat_uvel_sd              =   1.1529701227048E-02
(PID.TID 0000.0001) %MON dynstat_uvel_del2            =   7.8336936443853E-05
(PID.TID 0000.0001) %MON dynstat_vvel_max             =   1.3853915526625E-01
(PID.TID 0000.0001) %MON dynstat_vvel_min             =  -1.3752633695673E-01
(PID.TID 0000.0001) %MON dynstat_vvel_mean            =   2.0429376532750E-05
(PID.TID 0000.0001) %MON dynstat_vvel_sd              =   9.5218675733852E-03
(PID.TID 0000.0001) %MON dynstat_vvel_del2            =   8.0471084726269E-05
(PID.TID 0000.0001) %MON dynstat_wvel_max             =   1.1721059302565E-04
(PID.TID 0000.0001) %MON dynstat_wvel_min             =  -1.3840272122206E-04
(PID.TID 0000.0001) %MON dynstat_wvel_mean            =  -2.1570455702503E-22
(PID.TID 0000.0001) %MON dynstat_wvel_sd              =   1.4937766436651E-05
(PID.TID 0000.0001) %MON dynstat_wvel_del2            =   1.6364752135664E-07
(PID.TID 0000.0001) %MON dynstat_theta_max            =   2.9898343101036E+01
(PID.TID 0000.0001) %MON dynstat_theta_min            =  -2.0124250686525E+00
(PID.TID 0000.0001) %MON dynstat_theta_mean           =   3.6207526223890E+00
(PID.TID 0000.0001) %MON dynstat_theta_sd             =   4.4165001124806E+00
(PID.TID 0000.0001) %MON dynstat_theta_del2           =   4.8389049543148E-03
(PID.TID 0000.0001) %MON dynstat_salt_max             =   3.7447557654062E+01
(PID.TID 0000.0001) %MON dynstat_salt_min             =   2.9798330713424E+01
(PID.TID 0000.0001) %MON dynstat_salt_mean            =   3.4717981459189E+01
(PID.TID 0000.0001) %MON dynstat_salt_sd              =   2.9623452965618E-01
(PID.TID 0000.0001) %MON dynstat_salt_del2            =   1.0052974917414E-03
(PID.TID 0000.0001) %MON dynstat_sst_max              =   2.9898343101036E+01
(PID.TID 0000.0001) %MON dynstat_sst_min              =  -2.0124250686525E+00
(PID.TID 0000.0001) %MON dynstat_sst_mean             =   1.8708697752232E+01
(PID.TID 0000.0001) %MON dynstat_sst_sd               =   9.0603533360398E+00
(PID.TID 0000.0001) %MON dynstat_sst_del2             =   2.6422061000514E-02
(PID.TID 0000.0001) %MON dynstat_sss_max              =   3.7431939871938E+01
(PID.TID 0000.0001) %MON dynstat_sss_min              =   2.9798330713424E+01
(PID.TID 0000.0001) %MON dynstat_sss_mean             =   3.4849670306962E+01
(PID.TID 0000.0001) %MON dynstat_sss_sd               =   9.7382344996455E-01
(PID.TID 0000.0001) %MON dynstat_sss_del2             =   7.9275190834387E-03
(PID.TID 0000.0001) %MON forcing_qnet_max             =   4.1174183654785E+02
(PID.TID 0000.0001) %MON forcing_qnet_min             =  -1.7786387329102E+02
(PID.TID 0000.0001) %MON forcing_qnet_mean            =  -1.5748343494414E+01
(PID.TID 0000.0001) %MON forcing_qnet_sd              =   1.0030047515306E+02
(PID.TID 0000.0001) %MON forcing_qnet_del2            =   9.9066567498476E-01
(PID.TID 0000.0001) %MON forcing_qsw_max              =   0.0000000000000E+00
(PID.TID 0000.0001) %MON forcing_qsw_min              =   0.0000000000000E+00
(PID.TID 0000.0001) %MON forcing_qsw_mean             =   0.0000000000000E+00
(PID.TID 0000.0001) %MON forcing_qsw_sd               =   0.0000000000000E+00
(PID.TID 0000.0001) %MON forcing_qsw_del2             =   0.0000000000000E+00
(PID.TID 0000.0001) %MON forcing_empmr_max            =   7.9347431380938E-05
(PID.TID 0000.0001) %MON forcing_empmr_min            =  -7.6872754561919E-05
(PID.TID 0000.0001) %MON forcing_empmr_mean           =   9.2907863745025E-07
(PID.TID 0000.0001) %MON forcing_empmr_sd             =   2.8383735592419E-05
(PID.TID 0000.0001) %MON forcing_empmr_del2           =   3.5846896033345E-07
(PID.TID 0000.0001) %MON forcing_fu_max               =   2.7701420187950E-01
(PID.TID 0000.0001) %MON forcing_fu_min               =  -1.8087395131588E-01
(PID.TID 0000.0001) %MON forcing_fu_mean              =   1.6490437091787E-02
(PID.TID 0000.0001) %MON forcing_fu_sd                =   9.0006638203509E-02
(PID.TID 0000.0001) %MON forcing_fu_del2              =   6.7506455559060E-04
(PID.TID 0000.0001) %MON forcing_fv_max               =   2.0424529761076E-01
(PID.TID 0000.0001) %MON forcing_fv_min               =  -1.6921520233154E-01
(PID.TID 0000.0001) %MON forcing_fv_mean              =  -5.8462458999417E-03
(PID.TID 0000.0001) %MON forcing_fv_sd                =   4.5856746175698E-02
(PID.TID 0000.0001) %MON forcing_fv_del2              =   4.6584186697431E-04
(PID.TID 0000.0001) %MON trAdv_CFL_u_max              =   3.6129697258532E-02
(PID.TID 0000.0001) %MON trAdv_CFL_v_max              =   2.9542633234273E-02
(PID.TID 0000.0001) %MON trAdv_CFL_w_max              =   4.5762690793444E-02
(PID.TID 0000.0001) %MON advcfl_uvel_max              =   3.3240050078771E-02
(PID.TID 0000.0001) %MON advcfl_vvel_max              =   2.6915935967312E-02
(PID.TID 0000.0001) %MON advcfl_wvel_max              =   3.7933891696643E-02
(PID.TID 0000.0001) %MON advcfl_W_hf_max              =   4.6062582774495E-02
(PID.TID 0000.0001) %MON pe_b_mean                    =   4.1718963542530E-04
(PID.TID 0000.0001) %MON ke_max                       =   1.2497078382653E-02
(PID.TID 0000.0001) %MON ke_mean                      =   1.0177974666803E-04
(PID.TID 0000.0001) %MON ke_vol                       =   1.3226782436723E+18
(PID.TID 0000.0001) %MON vort_r_min                   =  -2.2223992556099E-07
(PID.TID 0000.0001) %MON vort_r_max                   =   3.4487478328188E-07
(PID.TID 0000.0001) %MON vort_a_mean                  =  -2.5274807104506E-05
(PID.TID 0000.0001) %MON vort_a_sd                    =   7.3604519538348E-05
(PID.TID 0000.0001) %MON vort_p_mean                  =  -3.1845655430369E-05
(PID.TID 0000.0001) %MON vort_p_sd                    =   1.3162525727361E-04
(PID.TID 0000.0001) %MON surfExpan_theta_mean         =  -8.3570198357101E-08
(PID.TID 0000.0001) %MON surfExpan_salt_mean          =   5.5761537622544E-08
(PID.TID 0000.0001) // =======================================================
(PID.TID 0000.0001) // End MONITOR dynamic field statistics
(PID.TID 0000.0001) // =======================================================
 EXTERNAL_FIELDS_LOAD,        25 : iP,iLd,i0,i1=    1    2    1    2 ; Wght=  0.6666666667  0.3333333333
 EXTERNAL_FIELDS_LOAD: (fu0,1),fu,fv= -3.5633E-02 -1.4435E-02 -2.8567E-02 -4.4050E-02
 EXTERNAL_FIELDS_LOAD: SST,SSS,Q,E-P=  4.6166E-01  3.4617E+01  2.5734E+02  1.0550E-05
DEBUG_STATS_RL:          Uvel (THERMODYNAMICS)  min= -1.58587661694569E-01
DEBUG_STATS_RL:          Uvel (THERMODYNAMICS)  max=  1.27144675090466E-01
DEBUG_STATS_RL:          Uvel (THERMODYNAMICS) mean=  3.03036250063245E-03
DEBUG_STATS_RL:          Uvel (THERMODYNAMICS) S.D.=  1.84599418746462E-02
DEBUG_STATS_RL:          Vvel (THERMODYNAMICS)  min= -1.37526336956728E-01
DEBUG_STATS_RL:          Vvel (THERMODYNAMICS)  max=  1.38539155266250E-01
DEBUG_STATS_RL:          Vvel (THERMODYNAMICS) mean=  1.73892257402654E-03
DEBUG_STATS_RL:          Vvel (THERMODYNAMICS) S.D.=  1.57095198369404E-02
DEBUG_STATS_RL:          Wvel (THERMODYNAMICS)  min= -1.38402721222061E-04
DEBUG_STATS_RL:          Wvel (THERMODYNAMICS)  max=  1.17210593025654E-04
DEBUG_STATS_RL:          Wvel (THERMODYNAMICS) mean=  3.95798567975878E-07
DEBUG_STATS_RL:          Wvel (THERMODYNAMICS) S.D.=  1.34380895325063E-05
DEBUG_STATS_RL:         Theta (THERMODYNAMICS)  min= -2.01172283713022E+00
DEBUG_STATS_RL:         Theta (THERMODYNAMICS)  max=  2.99111212603153E+01
DEBUG_STATS_RL:         Theta (THERMODYNAMICS) mean=  3.20880559529178E+00
DEBUG_STATS_RL:         Theta (THERMODYNAMICS) S.D.=  5.85820191044996E+00
DEBUG_STATS_RL:          Salt (THERMODYNAMICS)  min= -1.04083408558608E-17
DEBUG_STATS_RL:          Salt (THERMODYNAMICS)  max=  3.74486532602153E+01
DEBUG_STATS_RL:          Salt (THERMODYNAMICS) mean=  1.88450714595315E+01
DEBUG_STATS_RL:          Salt (THERMODYNAMICS) S.D.=  1.73005642195507E+01
DEBUG_STATS_RL:         GtNm1 (THERMODYNAMICS)  min= -3.64661876322663E-06
DEBUG_STATS_RL:         GtNm1 (THERMODYNAMICS)  max=  2.64257668181825E-06
DEBUG_STATS_RL:         GtNm1 (THERMODYNAMICS) mean= -1.30583703132193E-09
DEBUG_STATS_RL:         GtNm1 (THERMODYNAMICS) S.D.=  2.29845388975060E-07
DEBUG_STATS_RL:         GsNm1 (THERMODYNAMICS)  min= -7.16137889324004E-07
DEBUG_STATS_RL:         GsNm1 (THERMODYNAMICS)  max=  5.49518244508979E-07
DEBUG_STATS_RL:         GsNm1 (THERMODYNAMICS) mean= -6.71618560503450E-10
DEBUG_STATS_RL:         GsNm1 (THERMODYNAMICS) S.D.=  2.11243350640024E-08
DEBUG_STATS_RL:                EtaN (DYNAMICS)  min= -1.68962653244939E+00
DEBUG_STATS_RL:                EtaN (DYNAMICS)  max=  9.16470001518313E-01
DEBUG_STATS_RL:                EtaN (DYNAMICS) mean= -1.67150591490849E-01
DEBUG_STATS_RL:                EtaN (DYNAMICS) S.D.=  6.50654301021637E-01
DEBUG_STATS_RL:                Uvel (DYNAMICS)  min= -1.58587661694569E-01
DEBUG_STATS_RL:                Uvel (DYNAMICS)  max=  1.27144675090466E-01
DEBUG_STATS_RL:                Uvel (DYNAMICS) mean=  3.03036250063245E-03
DEBUG_STATS_RL:                Uvel (DYNAMICS) S.D.=  1.84599418746462E-02
DEBUG_STATS_RL:                Vvel (DYNAMICS)  min= -1.37526336956728E-01
DEBUG_STATS_RL:                Vvel (DYNAMICS)  max=  1.38539155266250E-01
DEBUG_STATS_RL:                Vvel (DYNAMICS) mean=  1.73892257402654E-03
DEBUG_STATS_RL:                Vvel (DYNAMICS) S.D.=  1.57095198369404E-02
DEBUG_STATS_RL:                Wvel (DYNAMICS)  min= -1.38402721222061E-04
DEBUG_STATS_RL:                Wvel (DYNAMICS)  max=  1.17210593025654E-04
DEBUG_STATS_RL:                Wvel (DYNAMICS) mean=  3.95798567975878E-07
DEBUG_STATS_RL:                Wvel (DYNAMICS) S.D.=  1.34380895325063E-05
DEBUG_STATS_RL:               Theta (DYNAMICS)  min= -2.01172283713022E+00
DEBUG_STATS_RL:               Theta (DYNAMICS)  max=  2.99111212603153E+01
DEBUG_STATS_RL:               Theta (DYNAMICS) mean=  3.20880559529178E+00
DEBUG_STATS_RL:               Theta (DYNAMICS) S.D.=  5.85820191044996E+00
DEBUG_STATS_RL:                Salt (DYNAMICS)  min= -1.04083408558608E-17
DEBUG_STATS_RL:                Salt (DYNAMICS)  max=  3.74486532602153E+01
DEBUG_STATS_RL:                Salt (DYNAMICS) mean=  1.88450714595315E+01
DEBUG_STATS_RL:                Salt (DYNAMICS) S.D.=  1.73005642195507E+01
DEBUG_STATS_RL:                  Gu (DYNAMICS)  min= -1.62681247920571E-01
DEBUG_STATS_RL:                  Gu (DYNAMICS)  max=  1.23790407670677E-01
DEBUG_STATS_RL:                  Gu (DYNAMICS) mean=  2.48826365355080E-03
DEBUG_STATS_RL:                  Gu (DYNAMICS) S.D.=  1.81030272608945E-02
DEBUG_STATS_RL:                  Gv (DYNAMICS)  min= -1.47068895264562E-01
DEBUG_STATS_RL:                  Gv (DYNAMICS)  max=  1.48020915613828E-01
DEBUG_STATS_RL:                  Gv (DYNAMICS) mean=  3.70905007183729E-03
DEBUG_STATS_RL:                  Gv (DYNAMICS) S.D.=  1.70894145673394E-02
DEBUG_STATS_RL:               GuNm1 (DYNAMICS)  min= -7.81312428701513E-06
DEBUG_STATS_RL:               GuNm1 (DYNAMICS)  max=  7.77112485879074E-06
DEBUG_STATS_RL:               GuNm1 (DYNAMICS) mean= -1.33288686653822E-08
DEBUG_STATS_RL:               GuNm1 (DYNAMICS) S.D.=  1.18894689409040E-06
DEBUG_STATS_RL:               GvNm1 (DYNAMICS)  min= -1.04054225252982E-05
DEBUG_STATS_RL:               GvNm1 (DYNAMICS)  max=  1.69459932753940E-05
DEBUG_STATS_RL:               GvNm1 (DYNAMICS) mean=  7.66183348123580E-07
DEBUG_STATS_RL:               GvNm1 (DYNAMICS) S.D.=  2.63352632265490E-06
DEBUG_STATS_RL:               GtNm1 (DYNAMICS)  min= -3.64661876322663E-06
DEBUG_STATS_RL:               GtNm1 (DYNAMICS)  max=  2.64257668181825E-06
DEBUG_STATS_RL:               GtNm1 (DYNAMICS) mean= -1.30583703132193E-09
DEBUG_STATS_RL:               GtNm1 (DYNAMICS) S.D.=  2.29845388975060E-07
DEBUG_STATS_RL:               GsNm1 (DYNAMICS)  min= -7.16137889324004E-07
DEBUG_STATS_RL:               GsNm1 (DYNAMICS)  max=  5.49518244508979E-07
DEBUG_STATS_RL:               GsNm1 (DYNAMICS) mean= -6.71618560503450E-10
DEBUG_STATS_RL:               GsNm1 (DYNAMICS) S.D.=  2.11243350640024E-08
DEBUG_STATS_RL:    cg2d_b (SOLVE_FOR_PRESSURE)  min= -2.28991679381683E+04
DEBUG_STATS_RL:    cg2d_b (SOLVE_FOR_PRESSURE)  max=  1.83954879413259E+04
DEBUG_STATS_RL:    cg2d_b (SOLVE_FOR_PRESSURE) mean=  1.82910120752000E+00
DEBUG_STATS_RL:    cg2d_b (SOLVE_FOR_PRESSURE) S.D.=  3.70182622622864E+03
 cg2d: Sum(rhs),rhsMax =   1.84913674891636E-01  1.50407866099991E+00
(PID.TID 0000.0001)  cg2d: iter=     1 ; resid.=  1.13845142933481E-01
(PID.TID 0000.0001)  cg2d: iter=     2 ; resid.=  5.90398883508864E-02
(PID.TID 0000.0001)  cg2d: iter=     3 ; resid.=  4.58765619035240E-02
(PID.TID 0000.0001)  cg2d: iter=     4 ; resid.=  4.44517761496279E-02
(PID.TID 0000.0001)  cg2d: iter=     5 ; resid.=  4.38553689722170E-02
(PID.TID 0000.0001)  cg2d: iter=     6 ; resid.=  4.01858464298525E-02
(PID.TID 0000.0001)  cg2d: iter=     7 ; resid.=  3.53403869588452E-02
(PID.TID 0000.0001)  cg2d: iter=     8 ; resid.=  2.82618826687574E-02
(PID.TID 0000.0001)  cg2d: iter=     9 ; resid.=  2.20347386950431E-02
(PID.TID 0000.0001)  cg2d: iter=    10 ; resid.=  1.68196031033989E-02
(PID.TID 0000.0001)  cg2d: iter=    11 ; resid.=  1.27834663612735E-02
(PID.TID 0000.0001)  cg2d: iter=    12 ; resid.=  1.01304522514371E-02
(PID.TID 0000.0001)  cg2d: iter=    13 ; resid.=  8.64233270110939E-03
(PID.TID 0000.0001)  cg2d: iter=    14 ; resid.=  6.92263589517250E-03
(PID.TID 0000.0001)  cg2d: iter=    15 ; resid.=  5.73551610053633E-03
(PID.TID 0000.0001)  cg2d: iter=    16 ; resid.=  4.34623675519535E-03
(PID.TID 0000.0001)  cg2d: iter=    17 ; resid.=  3.64017125000378E-03
(PID.TID 0000.0001)  cg2d: iter=    18 ; resid.=  3.41384945807965E-03
(PID.TID 0000.0001)  cg2d: iter=    19 ; resid.=  3.10944858512832E-03
(PID.TID 0000.0001)  cg2d: iter=    20 ; resid.=  2.62760661572893E-03
(PID.TID 0000.0001)  cg2d: iter=    21 ; resid.=  2.07295077881064E-03
(PID.TID 0000.0001)  cg2d: iter=    22 ; resid.=  1.65440256629995E-03
(PID.TID 0000.0001)  cg2d: iter=    23 ; resid.=  1.37799966986344E-03
(PID.TID 0000.0001)  cg2d: iter=    24 ; resid.=  1.23475600941406E-03
(PID.TID 0000.0001)  cg2d: iter=    25 ; resid.=  1.06286082319948E-03
(PID.TID 0000.0001)  cg2d: iter=    26 ; resid.=  8.54066001565320E-04
(PID.TID 0000.0001)  cg2d: iter=    27 ; resid.=  6.71535904456922E-04
(PID.TID 0000.0001)  cg2d: iter=    28 ; resid.=  5.64217294729323E-04
(PID.TID 0000.0001)  cg2d: iter=    29 ; resid.=  4.82711228406308E-04
(PID.TID 0000.0001)  cg2d: iter=    30 ; resid.=  3.98817949171322E-04
(PID.TID 0000.0001)  cg2d: iter=    31 ; resid.=  3.26663421146755E-04
(PID.TID 0000.0001)  cg2d: iter=    32 ; resid.=  2.77889275610941E-04
(PID.TID 0000.0001)  cg2d: iter=    33 ; resid.=  2.30299186467069E-04
(PID.TID 0000.0001)  cg2d: iter=    34 ; resid.=  1.79697563818812E-04
(PID.TID 0000.0001)  cg2d: iter=    35 ; resid.=  1.37557249923640E-04
(PID.TID 0000.0001)  cg2d: iter=    36 ; resid.=  1.10033034379578E-04
(PID.TID 0000.0001)  cg2d: iter=    37 ; resid.=  9.20979844963337E-05
(PID.TID 0000.0001)  cg2d: iter=    38 ; resid.=  7.93678333475201E-05
(PID.TID 0000.0001)  cg2d: iter=    39 ; resid.=  6.99461824057662E-05
(PID.TID 0000.0001)  cg2d: iter=    40 ; resid.=  6.24775910313049E-05
(PID.TID 0000.0001)  cg2d: iter=    41 ; resid.=  5.49964969733022E-05
(PID.TID 0000.0001)  cg2d: iter=    42 ; resid.=  4.74900782017038E-05
(PID.TID 0000.0001)  cg2d: iter=    43 ; resid.=  4.12281220539784E-05
(PID.TID 0000.0001)  cg2d: iter=    44 ; resid.=  3.26272519630693E-05
(PID.TID 0000.0001)  cg2d: iter=    45 ; resid.=  2.54510928940807E-05
(PID.TID 0000.0001)  cg2d: iter=    46 ; resid.=  1.92307866991686E-05
(PID.TID 0000.0001)  cg2d: iter=    47 ; resid.=  1.52598226852623E-05
(PID.TID 0000.0001)  cg2d: iter=    48 ; resid.=  1.25910626392350E-05
(PID.TID 0000.0001)  cg2d: iter=    49 ; resid.=  1.07876434974532E-05
(PID.TID 0000.0001)  cg2d: iter=    50 ; resid.=  9.77521463251982E-06
(PID.TID 0000.0001)  cg2d: iter=    51 ; resid.=  8.73647274904973E-06
(PID.TID 0000.0001)  cg2d: iter=    52 ; resid.=  7.36945647775678E-06
(PID.TID 0000.0001)  cg2d: iter=    53 ; resid.=  6.19503223527810E-06
(PID.TID 0000.0001)  cg2d: iter=    54 ; resid.=  5.80346669523490E-06
(PID.TID 0000.0001)  cg2d: iter=    55 ; resid.=  5.52350028802050E-06
(PID.TID 0000.0001)  cg2d: iter=    56 ; resid.=  4.77900437782668E-06
(PID.TID 0000.0001)  cg2d: iter=    57 ; resid.=  3.59546773660676E-06
(PID.TID 0000.0001)  cg2d: iter=    58 ; resid.=  2.65842717971585E-06
(PID.TID 0000.0001)  cg2d: iter=    59 ; resid.=  1.96809746972270E-06
(PID.TID 0000.0001)  cg2d: iter=    60 ; resid.=  1.54248637261827E-06
(PID.TID 0000.0001)  cg2d: iter=    61 ; resid.=  1.28081893382132E-06
(PID.TID 0000.0001)  cg2d: iter=    62 ; resid.=  1.01470759534679E-06
(PID.TID 0000.0001)  cg2d: iter=    63 ; resid.=  8.05343645493805E-07
(PID.TID 0000.0001)  cg2d: iter=    64 ; resid.=  6.36986198063285E-07
(PID.TID 0000.0001)  cg2d: iter=    65 ; resid.=  5.10534726385871E-07
(PID.TID 0000.0001)  cg2d: iter=    66 ; resid.=  4.38418067542031E-07
(PID.TID 0000.0001)  cg2d: iter=    67 ; resid.=  3.60702704590903E-07
(PID.TID 0000.0001)  cg2d: iter=    68 ; resid.=  3.10810131026642E-07
(PID.TID 0000.0001)  cg2d: iter=    69 ; resid.=  2.65544405692378E-07
(PID.TID 0000.0001)  cg2d: iter=    70 ; resid.=  2.33772382026733E-07
(PID.TID 0000.0001)  cg2d: iter=    71 ; resid.=  2.13408359439799E-07
(PID.TID 0000.0001)  cg2d: iter=    72 ; resid.=  1.78367336056879E-07
(PID.TID 0000.0001)  cg2d: iter=    73 ; resid.=  1.51041308870194E-07
(PID.TID 0000.0001)  cg2d: iter=    74 ; resid.=  1.25484960214245E-07
(PID.TID 0000.0001)  cg2d: iter=    75 ; resid.=  1.04036487711134E-07
(PID.TID 0000.0001)  cg2d: iter=    76 ; resid.=  8.52259516655943E-08
(PID.TID 0000.0001)  cg2d: iter=    77 ; resid.=  7.01301113665200E-08
(PID.TID 0000.0001)  cg2d: iter=    78 ; resid.=  5.45927244035968E-08
(PID.TID 0000.0001)  cg2d: iter=    79 ; resid.=  4.27518031311963E-08
(PID.TID 0000.0001)  cg2d: iter=    80 ; resid.=  3.15957993438716E-08
(PID.TID 0000.0001)  cg2d: iter=    81 ; resid.=  2.36127667144798E-08
(PID.TID 0000.0001)  cg2d: iter=    82 ; resid.=  1.98640074639520E-08
(PID.TID 0000.0001)  cg2d: iter=    83 ; resid.=  1.72408928408085E-08
(PID.TID 0000.0001)  cg2d: iter=    84 ; resid.=  1.35027959972891E-08
(PID.TID 0000.0001)  cg2d: iter=    85 ; resid.=  9.29053138491059E-09
(PID.TID 0000.0001)  cg2d: iter=    86 ; resid.=  6.25549583506957E-09
(PID.TID 0000.0001)  cg2d: iter=    87 ; resid.=  4.72861256453328E-09
(PID.TID 0000.0001)  cg2d: iter=    88 ; resid.=  3.91292878316718E-09
(PID.TID 0000.0001)  cg2d: iter=    89 ; resid.=  3.30448756691242E-09
(PID.TID 0000.0001)  cg2d: iter=    90 ; resid.=  2.76463197975024E-09
(PID.TID 0000.0001)  cg2d: iter=    91 ; resid.=  2.43922865229281E-09
(PID.TID 0000.0001)  cg2d: iter=    92 ; resid.=  2.35136041145851E-09
(PID.TID 0000.0001)  cg2d: iter=    93 ; resid.=  1.95436432851259E-09
(PID.TID 0000.0001)  cg2d: iter=    94 ; resid.=  1.49199675297881E-09
(PID.TID 0000.0001)  cg2d: iter=    95 ; resid.=  1.14938757140704E-09
(PID.TID 0000.0001)  cg2d: iter=    96 ; resid.=  9.46426771891099E-10
(PID.TID 0000.0001)  cg2d: iter=    97 ; resid.=  7.73753926972265E-10
(PID.TID 0000.0001)  cg2d: iter=    98 ; resid.=  6.09648183648899E-10
(PID.TID 0000.0001)  cg2d: iter=    99 ; resid.=  4.59475609876910E-10
(PID.TID 0000.0001)  cg2d: iter=   100 ; resid.=  3.47781178002717E-10
(PID.TID 0000.0001)  cg2d: iter=   101 ; resid.=  2.72576160677599E-10
(PID.TID 0000.0001)  cg2d: iter=   102 ; resid.=  2.09188845064777E-10
(PID.TID 0000.0001)  cg2d: iter=   103 ; resid.=  1.52671316266664E-10
(PID.TID 0000.0001)  cg2d: iter=   104 ; resid.=  1.19148558910986E-10
(PID.TID 0000.0001)  cg2d: iter=   105 ; resid.=  9.53892666246030E-11
(PID.TID 0000.0001)  cg2d: iter=   106 ; resid.=  7.43059186143025E-11
(PID.TID 0000.0001)  cg2d: iter=   107 ; resid.=  5.77896657531735E-11
(PID.TID 0000.0001)  cg2d: iter=   108 ; resid.=  4.48085541994044E-11
(PID.TID 0000.0001)  cg2d: iter=   109 ; resid.=  3.74805642728782E-11
(PID.TID 0000.0001)  cg2d: iter=   110 ; resid.=  2.92244159906242E-11
(PID.TID 0000.0001)  cg2d: iter=   111 ; resid.=  2.16354527774305E-11
(PID.TID 0000.0001)  cg2d: iter=   112 ; resid.=  1.56972098074875E-11
(PID.TID 0000.0001)  cg2d: iter=   113 ; resid.=  1.14802398697963E-11
(PID.TID 0000.0001)  cg2d: iter=   114 ; resid.=  8.63253684755732E-12
(PID.TID 0000.0001)  cg2d: iter=   115 ; resid.=  6.54470143294441E-12
(PID.TID 0000.0001)  cg2d: iter=   116 ; resid.=  5.20337954780234E-12
(PID.TID 0000.0001)  cg2d: iter=   117 ; resid.=  3.98607584103521E-12
(PID.TID 0000.0001)  cg2d: iter=   118 ; resid.=  3.03659557956321E-12
(PID.TID 0000.0001)  cg2d: iter=   119 ; resid.=  2.17386746989949E-12
(PID.TID 0000.0001)  cg2d: iter=   120 ; resid.=  1.61730480805717E-12
(PID.TID 0000.0001)  cg2d: iter=   121 ; resid.=  1.23051633728514E-12
(PID.TID 0000.0001)  cg2d: iter=   122 ; resid.=  9.53278023019895E-13
(PID.TID 0000.0001)  cg2d: iter=   123 ; resid.=  7.69011779182232E-13
(PID.TID 0000.0001)  cg2d: iter=   124 ; resid.=  6.41336133839339E-13
(PID.TID 0000.0001)  cg2d: iter=   125 ; resid.=  5.34983789605949E-13
(PID.TID 0000.0001)  cg2d: iter=   126 ; resid.=  4.40573020334349E-13
(PID.TID 0000.0001)  cg2d: iter=   127 ; resid.=  3.16492761520805E-13
(PID.TID 0000.0001)  cg2d: iter=   128 ; resid.=  1.94768469243307E-13
(PID.TID 0000.0001)  cg2d: iter=   129 ; resid.=  1.25946708934062E-13
(PID.TID 0000.0001)  cg2d: iter=   130 ; resid.=  9.11245185788764E-14
DEBUG_STATS_RL:    cg2d_x (SOLVE_FOR_PRESSURE)  min= -1.66163722807587E+01
DEBUG_STATS_RL:    cg2d_x (SOLVE_FOR_PRESSURE)  max=  8.90577418731226E+00
DEBUG_STATS_RL:    cg2d_x (SOLVE_FOR_PRESSURE) mean= -1.63501641021752E+00
DEBUG_STATS_RL:    cg2d_x (SOLVE_FOR_PRESSURE) S.D.=  6.35570889372344E+00
(PID.TID 0000.0001)      cg2d_init_res =   4.25714058488679E-01
(PID.TID 0000.0001)      cg2d_iters(min,last) =      -1     130
(PID.TID 0000.0001)      cg2d_last_res =   9.11245185788764E-14
(PID.TID 0000.0001) // =======================================================
(PID.TID 0000.0001) // Begin MONITOR dynamic field statistics
(PID.TID 0000.0001) // =======================================================
(PID.TID 0000.0001) %MON time_tsnumber                =                    26
(PID.TID 0000.0001) %MON time_secondsf                =   2.2464000000000E+06
(PID.TID 0000.0001) %MON dynstat_eta_max              =   9.0782611491461E-01
(PID.TID 0000.0001) %MON dynstat_eta_min              =  -1.6938198043587E+00
(PID.TID 0000.0001) %MON dynstat_eta_mean             =  -1.9084403089850E-03
(PID.TID 0000.0001) %MON dynstat_eta_sd               =   5.6767986413148E-01
(PID.TID 0000.0001) %MON dynstat_eta_del2             =   2.0547707776365E-03
(PID.TID 0000.0001) %MON dynstat_uvel_max             =   1.1510911715811E-01
(PID.TID 0000.0001) %MON dynstat_uvel_min             =  -1.6140688880289E-01
(PID.TID 0000.0001) %MON dynstat_uvel_mean            =   1.1846255113503E-03
(PID.TID 0000.0001) %MON dynstat_uvel_sd              =   1.1110373640570E-02
(PID.TID 0000.0001) %MON dynstat_uvel_del2            =   7.6213246675339E-05
(PID.TID 0000.0001) %MON dynstat_vvel_max             =   1.2864527929102E-01
(PID.TID 0000.0001) %MON dynstat_vvel_min             =  -1.3680702150309E-01
(PID.TID 0000.0001) %MON dynstat_vvel_mean            =   2.1710499450177E-05
(PID.TID 0000.0001) %MON dynstat_vvel_sd              =   9.2504183734972E-03
(PID.TID 0000.0001) %MON dynstat_vvel_del2            =   7.7869493593137E-05
(PID.TID 0000.0001) %MON dynstat_wvel_max             =   1.1527856729944E-04
(PID.TID 0000.0001) %MON dynstat_wvel_min             =  -1.4054456299976E-04
(PID.TID 0000.0001) %MON dynstat_wvel_mean            =   1.7259461046592E-22
(PID.TID 0000.0001) %MON dynstat_wvel_sd              =   1.4132292244291E-05
(PID.TID 0000.0001) %MON dynstat_wvel_del2            =   1.5628774113010E-07
(PID.TID 0000.0001) %MON dynstat_theta_max            =   2.9911121260315E+01
(PID.TID 0000.0001) %MON dynstat_theta_min            =  -2.0117228371302E+00
(PID.TID 0000.0001) %MON dynstat_theta_mean           =   3.6208419173571E+00
(PID.TID 0000.0001) %MON dynstat_theta_sd             =   4.4166652981103E+00
(PID.TID 0000.0001) %MON dynstat_theta_del2           =   4.8402739027238E-03
(PID.TID 0000.0001) %MON dynstat_salt_max             =   3.7448653260215E+01
(PID.TID 0000.0001) %MON dynstat_salt_min             =   2.9802136391008E+01
(PID.TID 0000.0001) %MON dynstat_salt_mean            =   3.4717981223895E+01
(PID.TID 0000.0001) %MON dynstat_salt_sd              =   2.9623665743930E-01
(PID.TID 0000.0001) %MON dynstat_salt_del2            =   1.0039967958472E-03
(PID.TID 0000.0001) %MON dynstat_sst_max              =   2.9911121260315E+01
(PID.TID 0000.0001) %MON dynstat_sst_min              =  -2.0117228371302E+00
(PID.TID 0000.0001) %MON dynstat_sst_mean             =   1.8713075794576E+01
(PID.TID 0000.0001) %MON dynstat_sst_sd               =   9.0604353273130E+00
(PID.TID 0000.0001) %MON dynstat_sst_del2             =   2.6468568696925E-02
(PID.TID 0000.0001) %MON dynstat_sss_max              =   3.7432304938086E+01
(PID.TID 0000.0001) %MON dynstat_sss_min              =   2.9802136391008E+01
(PID.TID 0000.0001) %MON dynstat_sss_mean             =   3.4848953685196E+01
(PID.TID 0000.0001) %MON dynstat_sss_sd               =   9.7414646635877E-01
(PID.TID 0000.0001) %MON dynstat_sss_del2             =   7.9158417404226E-03
(PID.TID 0000.0001) %MON forcing_qnet_max             =   4.0842274983724E+02
(PID.TID 0000.0001) %MON forcing_qnet_min             =  -1.7762435404460E+02
(PID.TID 0000.0001) %MON forcing_qnet_mean            =  -1.5663434327010E+01
(PID.TID 0000.0001) %MON forcing_qnet_sd              =   9.9257487839865E+01
(PID.TID 0000.0001) %MON forcing_qnet_del2            =   9.8746228186851E-01
(PID.TID 0000.0001) %MON forcing_qsw_max              =   0.0000000000000E+00
(PID.TID 0000.0001) %MON forcing_qsw_min              =   0.0000000000000E+00
(PID.TID 0000.0001) %MON forcing_qsw_mean             =   0.0000000000000E+00
(PID.TID 0000.0001) %MON forcing_qsw_sd               =   0.0000000000000E+00
(PID.TID 0000.0001) %MON forcing_qsw_del2             =   0.0000000000000E+00
(PID.TID 0000.0001) %MON forcing_empmr_max            =   7.9033341648937E-05
(PID.TID 0000.0001) %MON forcing_empmr_min            =  -7.6952398823475E-05
(PID.TID 0000.0001) %MON forcing_empmr_mean           =   9.2976103471021E-07
(PID.TID 0000.0001) %MON forcing_empmr_sd             =   2.8346308992535E-05
(PID.TID 0000.0001) %MON forcing_empmr_del2           =   3.5774711297823E-07
(PID.TID 0000.0001) %MON forcing_fu_max               =   2.7689236402512E-01
(PID.TID 0000.0001) %MON forcing_fu_min               =  -1.8253387510777E-01
(PID.TID 0000.0001) %MON forcing_fu_mean              =   1.6544737307256E-02
(PID.TID 0000.0001) %MON forcing_fu_sd                =   8.9976513162372E-02
(PID.TID 0000.0001) %MON forcing_fu_del2              =   6.7244408205288E-04
(PID.TID 0000.0001) %MON forcing_fv_max               =   2.0103685061137E-01
(PID.TID 0000.0001) %MON forcing_fv_min               =  -1.6822390258312E-01
(PID.TID 0000.0001) %MON forcing_fv_mean              =  -5.9115068066569E-03
(PID.TID 0000.0001) %MON forcing_fv_sd                =   4.5661871186592E-02
(PID.TID 0000.0001) %MON forcing_fv_del2              =   4.6455732257683E-04
(PID.TID 0000.0001) %MON trAdv_CFL_u_max              =   3.3246801370679E-02
(PID.TID 0000.0001) %MON trAdv_CFL_v_max              =   2.7877928675096E-02
(PID.TID 0000.0001) %MON trAdv_CFL_w_max              =   4.6062582774495E-02
(PID.TID 0000.0001) %MON advcfl_uvel_max              =   3.2318775595852E-02
(PID.TID 0000.0001) %MON advcfl_vvel_max              =   2.6579410157215E-02
(PID.TID 0000.0001) %MON advcfl_wvel_max              =   3.8017734461291E-02
(PID.TID 0000.0001) %MON advcfl_W_hf_max              =   4.6164391845853E-02
(PID.TID 0000.0001) %MON pe_b_mean                    =   4.1237572132999E-04
(PID.TID 0000.0001) %MON ke_max                       =   1.2597177536026E-02
(PID.TID 0000.0001) %MON ke_mean                      =   9.5134844094757E-05
(PID.TID 0000.0001) %MON ke_vol                       =   1.3226782436723E+18
(PID.TID 0000.0001) %MON vort_r_min                   =  -2.1923537574583E-07
(PID.TID 0000.0001) %MON vort_r_max                   =   3.5662992847779E-07
(PID.TID 0000.0001) %MON vort_a_mean                  =  -2.5274807096234E-05
(PID.TID 0000.0001) %MON vort_a_sd                    =   7.3604514675805E-05
(PID.TID 0000.0001) %MON vort_p_mean                  =  -3.1845655419946E-05
(PID.TID 0000.0001) %MON vort_p_sd                    =   1.3162534673032E-04
(PID.TID 0000.0001) %MON surfExpan_theta_mean         =  -6.5350230590280E-08
(PID.TID 0000.0001) %MON surfExpan_salt_mean          =   5.2134730084236E-08
(PID.TID 0000.0001) // =======================================================
(PID.TID 0000.0001) // End MONITOR dynamic field statistics
(PID.TID 0000.0001) // =======================================================
 EXTERNAL_FIELDS_LOAD,        26 : iP,iLd,i0,i1=    1    2    1    2 ; Wght=  0.6333333333  0.3666666667
 EXTERNAL_FIELDS_LOAD: (fu0,1),fu,fv= -3.5633E-02 -1.4435E-02 -2.7860E-02 -4.2729E-02
 EXTERNAL_FIELDS_LOAD: SST,SSS,Q,E-P=  4.1199E-01  3.4607E+01  2.5650E+02  1.0441E-05
DEBUG_STATS_RL:          Uvel (THERMODYNAMICS)  min= -1.61406888802890E-01
DEBUG_STATS_RL:          Uvel (THERMODYNAMICS)  max=  1.15109117158108E-01
DEBUG_STATS_RL:          Uvel (THERMODYNAMICS) mean=  2.55476349766597E-03
DEBUG_STATS_RL:          Uvel (THERMODYNAMICS) S.D.=  1.77326447616516E-02
DEBUG_STATS_RL:          Vvel (THERMODYNAMICS)  min= -1.36807021503088E-01
DEBUG_STATS_RL:          Vvel (THERMODYNAMICS)  max=  1.28645279291016E-01
DEBUG_STATS_RL:          Vvel (THERMODYNAMICS) mean=  1.55081136552243E-03
DEBUG_STATS_RL:          Vvel (THERMODYNAMICS) S.D.=  1.51634606160276E-02
DEBUG_STATS_RL:          Wvel (THERMODYNAMICS)  min= -1.40544562999759E-04
DEBUG_STATS_RL:          Wvel (THERMODYNAMICS)  max=  1.15278567299436E-04
DEBUG_STATS_RL:          Wvel (THERMODYNAMICS) mean=  3.33987716703648E-07
DEBUG_STATS_RL:          Wvel (THERMODYNAMICS) S.D.=  1.26212943313936E-05
DEBUG_STATS_RL:         Theta (THERMODYNAMICS)  min= -2.01099771574307E+00
DEBUG_STATS_RL:         Theta (THERMODYNAMICS)  max=  2.99250617838166E+01
DEBUG_STATS_RL:         Theta (THERMODYNAMICS) mean=  3.20879297502270E+00
DEBUG_STATS_RL:         Theta (THERMODYNAMICS) S.D.=  5.85833007405749E+00
DEBUG_STATS_RL:          Salt (THERMODYNAMICS)  min= -1.04083408558608E-17
DEBUG_STATS_RL:          Salt (THERMODYNAMICS)  max=  3.74496921824887E+01
DEBUG_STATS_RL:          Salt (THERMODYNAMICS) mean=  1.88450418203515E+01
DEBUG_STATS_RL:          Salt (THERMODYNAMICS) S.D.=  1.73005373313055E+01
DEBUG_STATS_RL:         GtNm1 (THERMODYNAMICS)  min= -3.21668228321773E-06
DEBUG_STATS_RL:         GtNm1 (THERMODYNAMICS)  max=  2.64466016561486E-06
DEBUG_STATS_RL:         GtNm1 (THERMODYNAMICS) mean= -5.71738701909928E-10
DEBUG_STATS_RL:         GtNm1 (THERMODYNAMICS) S.D.=  2.25244238110099E-07
DEBUG_STATS_RL:         GsNm1 (THERMODYNAMICS)  min= -5.40940097657215E-07
DEBUG_STATS_RL:         GsNm1 (THERMODYNAMICS)  max=  4.05587764272873E-07
DEBUG_STATS_RL:         GsNm1 (THERMODYNAMICS) mean= -7.06623993599825E-10
DEBUG_STATS_RL:         GsNm1 (THERMODYNAMICS) S.D.=  2.04082829682378E-08
DEBUG_STATS_RL:                EtaN (DYNAMICS)  min= -1.69381980435871E+00
DEBUG_STATS_RL:                EtaN (DYNAMICS)  max=  9.07826114914614E-01
DEBUG_STATS_RL:                EtaN (DYNAMICS) mean= -1.66668339471714E-01
DEBUG_STATS_RL:                EtaN (DYNAMICS) S.D.=  6.47880621174661E-01
DEBUG_STATS_RL:                Uvel (DYNAMICS)  min= -1.61406888802890E-01
DEBUG_STATS_RL:                Uvel (DYNAMICS)  max=  1.15109117158108E-01
DEBUG_STATS_RL:                Uvel (DYNAMICS) mean=  2.55476349766597E-03
DEBUG_STATS_RL:                Uvel (DYNAMICS) S.D.=  1.77326447616516E-02
DEBUG_STATS_RL:                Vvel (DYNAMICS)  min= -1.36807021503088E-01
DEBUG_STATS_RL:                Vvel (DYNAMICS)  max=  1.28645279291016E-01
DEBUG_STATS_RL:                Vvel (DYNAMICS) mean=  1.55081136552243E-03
DEBUG_STATS_RL:                Vvel (DYNAMICS) S.D.=  1.51634606160276E-02
DEBUG_STATS_RL:                Wvel (DYNAMICS)  min= -1.40544562999759E-04
DEBUG_STATS_RL:                Wvel (DYNAMICS)  max=  1.15278567299436E-04
DEBUG_STATS_RL:                Wvel (DYNAMICS) mean=  3.33987716703648E-07
DEBUG_STATS_RL:                Wvel (DYNAMICS) S.D.=  1.26212943313936E-05
DEBUG_STATS_RL:               Theta (DYNAMICS)  min= -2.01099771574307E+00
DEBUG_STATS_RL:               Theta (DYNAMICS)  max=  2.99250617838166E+01
DEBUG_STATS_RL:               Theta (DYNAMICS) mean=  3.20879297502270E+00
DEBUG_STATS_RL:               Theta (DYNAMICS) S.D.=  5.85833007405749E+00
DEBUG_STATS_RL:                Salt (DYNAMICS)  min= -1.04083408558608E-17
DEBUG_STATS_RL:                Salt (DYNAMICS)  max=  3.74496921824887E+01
DEBUG_STATS_RL:                Salt (DYNAMICS) mean=  1.88450418203515E+01
DEBUG_STATS_RL:                Salt (DYNAMICS) S.D.=  1.73005373313055E+01
DEBUG_STATS_RL:                  Gu (DYNAMICS)  min= -1.64990946137464E-01
DEBUG_STATS_RL:                  Gu (DYNAMICS)  max=  1.11366202045539E-01
DEBUG_STATS_RL:                  Gu (DYNAMICS) mean=  2.06166789191707E-03
DEBUG_STATS_RL:                  Gu (DYNAMICS) S.D.=  1.75273061063715E-02
DEBUG_STATS_RL:                  Gv (DYNAMICS)  min= -1.44620701104023E-01
DEBUG_STATS_RL:                  Gv (DYNAMICS)  max=  1.35858839504575E-01
DEBUG_STATS_RL:                  Gv (DYNAMICS) mean=  3.49241852003419E-03
DEBUG_STATS_RL:                  Gv (DYNAMICS) S.D.=  1.64176848089693E-02
DEBUG_STATS_RL:               GuNm1 (DYNAMICS)  min= -7.85884526935427E-06
DEBUG_STATS_RL:               GuNm1 (DYNAMICS)  max=  7.73051038048465E-06
DEBUG_STATS_RL:               GuNm1 (DYNAMICS) mean= -1.38651091491234E-08
DEBUG_STATS_RL:               GuNm1 (DYNAMICS) S.D.=  1.19386123132614E-06
DEBUG_STATS_RL:               GvNm1 (DYNAMICS)  min= -1.05432111637333E-05
DEBUG_STATS_RL:               GvNm1 (DYNAMICS)  max=  1.68533041897801E-05
DEBUG_STATS_RL:               GvNm1 (DYNAMICS) mean=  7.64952819361833E-07
DEBUG_STATS_RL:               GvNm1 (DYNAMICS) S.D.=  2.64035984491566E-06
DEBUG_STATS_RL:               GtNm1 (DYNAMICS)  min= -3.21668228321773E-06
DEBUG_STATS_RL:               GtNm1 (DYNAMICS)  max=  2.64466016561486E-06
DEBUG_STATS_RL:               GtNm1 (DYNAMICS) mean= -5.71738701909928E-10
DEBUG_STATS_RL:               GtNm1 (DYNAMICS) S.D.=  2.25244238110099E-07
DEBUG_STATS_RL:               GsNm1 (DYNAMICS)  min= -5.40940097657215E-07
DEBUG_STATS_RL:               GsNm1 (DYNAMICS)  max=  4.05587764272873E-07
DEBUG_STATS_RL:               GsNm1 (DYNAMICS) mean= -7.06623993599825E-10
DEBUG_STATS_RL:               GsNm1 (DYNAMICS) S.D.=  2.04082829682378E-08
DEBUG_STATS_RL:    cg2d_b (SOLVE_FOR_PRESSURE)  min= -2.27118143320365E+04
DEBUG_STATS_RL:    cg2d_b (SOLVE_FOR_PRESSURE)  max=  1.86593732512870E+04
DEBUG_STATS_RL:    cg2d_b (SOLVE_FOR_PRESSURE) mean=  1.90354397717762E+00
DEBUG_STATS_RL:    cg2d_b (SOLVE_FOR_PRESSURE) S.D.=  3.73934747090870E+03
 cg2d: Sum(rhs),rhsMax =   1.94026960714915E-01  1.49177277452381E+00
(PID.TID 0000.0001)  cg2d: iter=     1 ; resid.=  1.12116613519647E-01
(PID.TID 0000.0001)  cg2d: iter=     2 ; resid.=  5.75629916667609E-02
(PID.TID 0000.0001)  cg2d: iter=     3 ; resid.=  4.32550614289129E-02
(PID.TID 0000.0001)  cg2d: iter=     4 ; resid.=  4.14065307436699E-02
(PID.TID 0000.0001)  cg2d: iter=     5 ; resid.=  4.19561919122398E-02
(PID.TID 0000.0001)  cg2d: iter=     6 ; resid.=  3.88371257205127E-02
(PID.TID 0000.0001)  cg2d: iter=     7 ; resid.=  3.45240624841565E-02
(PID.TID 0000.0001)  cg2d: iter=     8 ; resid.=  2.75720109091321E-02
(PID.TID 0000.0001)  cg2d: iter=     9 ; resid.=  2.16063405190252E-02
(PID.TID 0000.0001)  cg2d: iter=    10 ; resid.=  1.70220486200652E-02
(PID.TID 0000.0001)  cg2d: iter=    11 ; resid.=  1.32954755058573E-02
(PID.TID 0000.0001)  cg2d: iter=    12 ; resid.=  1.06414451321342E-02
(PID.TID 0000.0001)  cg2d: iter=    13 ; resid.=  9.18986857350915E-03
(PID.TID 0000.0001)  cg2d: iter=    14 ; resid.=  7.40074551457690E-03
(PID.TID 0000.0001)  cg2d: iter=    15 ; resid.=  6.19202075818576E-03
(PID.TID 0000.0001)  cg2d: iter=    16 ; resid.=  4.76773750952271E-03
(PID.TID 0000.0001)  cg2d: iter=    17 ; resid.=  4.08194120901517E-03
(PID.TID 0000.0001)  cg2d: iter=    18 ; resid.=  3.86135073133365E-03
(PID.TID 0000.0001)  cg2d: iter=    19 ; resid.=  3.51703543950814E-03
(PID.TID 0000.0001)  cg2d: iter=    20 ; resid.=  3.02050884220339E-03
(PID.TID 0000.0001)  cg2d: iter=    21 ; resid.=  2.40660325219392E-03
(PID.TID 0000.0001)  cg2d: iter=    22 ; resid.=  1.92553172006688E-03
(PID.TID 0000.0001)  cg2d: iter=    23 ; resid.=  1.59152604268821E-03
(PID.TID 0000.0001)  cg2d: iter=    24 ; resid.=  1.37138645897597E-03
(PID.TID 0000.0001)  cg2d: iter=    25 ; resid.=  1.14129826993592E-03
(PID.TID 0000.0001)  cg2d: iter=    26 ; resid.=  9.06867463673095E-04
(PID.TID 0000.0001)  cg2d: iter=    27 ; resid.=  7.10936391175719E-04
(PID.TID 0000.0001)  cg2d: iter=    28 ; resid.=  5.90454184417884E-04
(PID.TID 0000.0001)  cg2d: iter=    29 ; resid.=  5.04813842943932E-04
(PID.TID 0000.0001)  cg2d: iter=    30 ; resid.=  4.14569146860277E-04
(PID.TID 0000.0001)  cg2d: iter=    31 ; resid.=  3.39364936009926E-04
(PID.TID 0000.0001)  cg2d: iter=    32 ; resid.=  2.87428984104905E-04
(PID.TID 0000.0001)  cg2d: iter=    33 ; resid.=  2.41322284365580E-04
(PID.TID 0000.0001)  cg2d: iter=    34 ; resid.=  1.92976459325454E-04
(PID.TID 0000.0001)  cg2d: iter=    35 ; resid.=  1.50066321617913E-04
(PID.TID 0000.0001)  cg2d: iter=    36 ; resid.=  1.21649656974792E-04
(PID.TID 0000.0001)  cg2d: iter=    37 ; resid.=  1.02851845575197E-04
(PID.TID 0000.0001)  cg2d: iter=    38 ; resid.=  9.07565836367555E-05
(PID.TID 0000.0001)  cg2d: iter=    39 ; resid.=  8.09659827315925E-05
(PID.TID 0000.0001)  cg2d: iter=    40 ; resid.=  7.20343194711545E-05
(PID.TID 0000.0001)  cg2d: iter=    41 ; resid.=  6.33952093849820E-05
(PID.TID 0000.0001)  cg2d: iter=    42 ; resid.=  5.44712502872194E-05
(PID.TID 0000.0001)  cg2d: iter=    43 ; resid.=  4.64911557741546E-05
(PID.TID 0000.0001)  cg2d: iter=    44 ; resid.=  3.64241871014652E-05
(PID.TID 0000.0001)  cg2d: iter=    45 ; resid.=  2.95858221667494E-05
(PID.TID 0000.0001)  cg2d: iter=    46 ; resid.=  2.36136176481428E-05
(PID.TID 0000.0001)  cg2d: iter=    47 ; resid.=  1.95624434883722E-05
(PID.TID 0000.0001)  cg2d: iter=    48 ; resid.=  1.60481258260945E-05
(PID.TID 0000.0001)  cg2d: iter=    49 ; resid.=  1.33467202727041E-05
(PID.TID 0000.0001)  cg2d: iter=    50 ; resid.=  1.16228414026156E-05
(PID.TID 0000.0001)  cg2d: iter=    51 ; resid.=  1.01356811468623E-05
(PID.TID 0000.0001)  cg2d: iter=    52 ; resid.=  8.43170817521082E-06
(PID.TID 0000.0001)  cg2d: iter=    53 ; resid.=  7.04333434380781E-06
(PID.TID 0000.0001)  cg2d: iter=    54 ; resid.=  6.56588221166136E-06
(PID.TID 0000.0001)  cg2d: iter=    55 ; resid.=  6.17384512064972E-06
(PID.TID 0000.0001)  cg2d: iter=    56 ; resid.=  5.31755720979196E-06
(PID.TID 0000.0001)  cg2d: iter=    57 ; resid.=  3.98598952235681E-06
(PID.TID 0000.0001)  cg2d: iter=    58 ; resid.=  2.93093523254445E-06
(PID.TID 0000.0001)  cg2d: iter=    59 ; resid.=  2.12332152362109E-06
(PID.TID 0000.0001)  cg2d: iter=    60 ; resid.=  1.65171764924279E-06
(PID.TID 0000.0001)  cg2d: iter=    61 ; resid.=  1.34813310792635E-06
(PID.TID 0000.0001)  cg2d: iter=    62 ; resid.=  1.05701134054176E-06
(PID.TID 0000.0001)  cg2d: iter=    63 ; resid.=  8.22347222364222E-07
(PID.TID 0000.0001)  cg2d: iter=    64 ; resid.=  6.29632036223868E-07
(PID.TID 0000.0001)  cg2d: iter=    65 ; resid.=  4.94399334373455E-07
(PID.TID 0000.0001)  cg2d: iter=    66 ; resid.=  4.29480947451572E-07
(PID.TID 0000.0001)  cg2d: iter=    67 ; resid.=  3.59593448229048E-07
(PID.TID 0000.0001)  cg2d: iter=    68 ; resid.=  3.12091283602282E-07
(PID.TID 0000.0001)  cg2d: iter=    69 ; resid.=  2.73189649261322E-07
(PID.TID 0000.0001)  cg2d: iter=    70 ; resid.=  2.45766821472736E-07
(PID.TID 0000.0001)  cg2d: iter=    71 ; resid.=  2.30190136141105E-07
(PID.TID 0000.0001)  cg2d: iter=    72 ; resid.=  1.93057111786904E-07
(PID.TID 0000.0001)  cg2d: iter=    73 ; resid.=  1.54753195489461E-07
(PID.TID 0000.0001)  cg2d: iter=    74 ; resid.=  1.18965077714863E-07
(PID.TID 0000.0001)  cg2d: iter=    75 ; resid.=  9.11625497752993E-08
(PID.TID 0000.0001)  cg2d: iter=    76 ; resid.=  7.28751262067514E-08
(PID.TID 0000.0001)  cg2d: iter=    77 ; resid.=  5.98630039996856E-08
(PID.TID 0000.0001)  cg2d: iter=    78 ; resid.=  4.76843564151083E-08
(PID.TID 0000.0001)  cg2d: iter=    79 ; resid.=  3.80301263286066E-08
(PID.TID 0000.0001)  cg2d: iter=    80 ; resid.=  2.84998867364473E-08
(PID.TID 0000.0001)  cg2d: iter=    81 ; resid.=  2.22359659804479E-08
(PID.TID 0000.0001)  cg2d: iter=    82 ; resid.=  1.98254069377890E-08
(PID.TID 0000.0001)  cg2d: iter=    83 ; resid.=  1.81835358141946E-08
(PID.TID 0000.0001)  cg2d: iter=    84 ; resid.=  1.47669789558023E-08
(PID.TID 0000.0001)  cg2d: iter=    85 ; resid.=  1.03142454645604E-08
(PID.TID 0000.0001)  cg2d: iter=    86 ; resid.=  6.94079376925359E-09
(PID.TID 0000.0001)  cg2d: iter=    87 ; resid.=  5.05156511843806E-09
(PID.TID 0000.0001)  cg2d: iter=    88 ; resid.=  3.90002185405385E-09
(PID.TID 0000.0001)  cg2d: iter=    89 ; resid.=  3.09599820892657E-09
(PID.TID 0000.0001)  cg2d: iter=    90 ; resid.=  2.42936078729499E-09
(PID.TID 0000.0001)  cg2d: iter=    91 ; resid.=  2.01896531236668E-09
(PID.TID 0000.0001)  cg2d: iter=    92 ; resid.=  1.88645402179254E-09
(PID.TID 0000.0001)  cg2d: iter=    93 ; resid.=  1.59022127501220E-09
(PID.TID 0000.0001)  cg2d: iter=    94 ; resid.=  1.22277383198396E-09
(PID.TID 0000.0001)  cg2d: iter=    95 ; resid.=  9.49494180367500E-10
(PID.TID 0000.0001)  cg2d: iter=    96 ; resid.=  8.24041922313734E-10
(PID.TID 0000.0001)  cg2d: iter=    97 ; resid.=  7.21013000305235E-10
(PID.TID 0000.0001)  cg2d: iter=    98 ; resid.=  6.05195321595230E-10
(PID.TID 0000.0001)  cg2d: iter=    99 ; resid.=  4.79991204863192E-10
(PID.TID 0000.0001)  cg2d: iter=   100 ; resid.=  3.74980140084291E-10
(PID.TID 0000.0001)  cg2d: iter=   101 ; resid.=  2.97572812642975E-10
(PID.TID 0000.0001)  cg2d: iter=   102 ; resid.=  2.25786054222187E-10
(PID.TID 0000.0001)  cg2d: iter=   103 ; resid.=  1.60899055736690E-10
(PID.TID 0000.0001)  cg2d: iter=   104 ; resid.=  1.27067815241484E-10
(PID.TID 0000.0001)  cg2d: iter=   105 ; resid.=  1.05917667782455E-10
(PID.TID 0000.0001)  cg2d: iter=   106 ; resid.=  8.62914458802505E-11
(PID.TID 0000.0001)  cg2d: iter=   107 ; resid.=  6.84659089608888E-11
(PID.TID 0000.0001)  cg2d: iter=   108 ; resid.=  5.16632978585714E-11
(PID.TID 0000.0001)  cg2d: iter=   109 ; resid.=  4.13025075203853E-11
(PID.TID 0000.0001)  cg2d: iter=   110 ; resid.=  3.13367056177977E-11
(PID.TID 0000.0001)  cg2d: iter=   111 ; resid.=  2.34615338270558E-11
(PID.TID 0000.0001)  cg2d: iter=   112 ; resid.=  1.77012606585782E-11
(PID.TID 0000.0001)  cg2d: iter=   113 ; resid.=  1.34883077930259E-11
(PID.TID 0000.0001)  cg2d: iter=   114 ; resid.=  1.02435327181696E-11
(PID.TID 0000.0001)  cg2d: iter=   115 ; resid.=  7.55653617455934E-12
(PID.TID 0000.0001)  cg2d: iter=   116 ; resid.=  5.78318375208019E-12
(PID.TID 0000.0001)  cg2d: iter=   117 ; resid.=  4.21026535727887E-12
(PID.TID 0000.0001)  cg2d: iter=   118 ; resid.=  3.05765989515514E-12
(PID.TID 0000.0001)  cg2d: iter=   119 ; resid.=  2.17818149980023E-12
(PID.TID 0000.0001)  cg2d: iter=   120 ; resid.=  1.64005928758419E-12
(PID.TID 0000.0001)  cg2d: iter=   121 ; resid.=  1.26615061971100E-12
(PID.TID 0000.0001)  cg2d: iter=   122 ; resid.=  9.88453068372182E-13
(PID.TID 0000.0001)  cg2d: iter=   123 ; resid.=  7.92559177435676E-13
(PID.TID 0000.0001)  cg2d: iter=   124 ; resid.=  6.50489167176046E-13
(PID.TID 0000.0001)  cg2d: iter=   125 ; resid.=  5.43125157898672E-13
(PID.TID 0000.0001)  cg2d: iter=   126 ; resid.=  4.53884830004721E-13
(PID.TID 0000.0001)  cg2d: iter=   127 ; resid.=  3.32855580090355E-13
(PID.TID 0000.0001)  cg2d: iter=   128 ; resid.=  2.09114259848649E-13
(PID.TID 0000.0001)  cg2d: iter=   129 ; resid.=  1.34404801255295E-13
(PID.TID 0000.0001)  cg2d: iter=   130 ; resid.=  9.39854323169440E-14
DEBUG_STATS_RL:    cg2d_x (SOLVE_FOR_PRESSURE)  min= -1.66351130866512E+01
DEBUG_STATS_RL:    cg2d_x (SOLVE_FOR_PRESSURE)  max=  8.85846301328223E+00
DEBUG_STATS_RL:    cg2d_x (SOLVE_FOR_PRESSURE) mean= -1.63170455425156E+00
DEBUG_STATS_RL:    cg2d_x (SOLVE_FOR_PRESSURE) S.D.=  6.33313815765408E+00
(PID.TID 0000.0001)      cg2d_init_res =   4.20610243323330E-01
(PID.TID 0000.0001)      cg2d_iters(min,last) =      -1     130
(PID.TID 0000.0001)      cg2d_last_res =   9.39854323169440E-14
(PID.TID 0000.0001) // =======================================================
(PID.TID 0000.0001) // Begin MONITOR dynamic field statistics
(PID.TID 0000.0001) // =======================================================
(PID.TID 0000.0001) %MON time_tsnumber                =                    27
(PID.TID 0000.0001) %MON time_secondsf                =   2.3328000000000E+06
(PID.TID 0000.0001) %MON dynstat_eta_max              =   9.0300336526830E-01
(PID.TID 0000.0001) %MON dynstat_eta_min              =  -1.6957301821254E+00
(PID.TID 0000.0001) %MON dynstat_eta_mean             =  -1.9861121085230E-03
(PID.TID 0000.0001) %MON dynstat_eta_sd               =   5.6489157670884E-01
(PID.TID 0000.0001) %MON dynstat_eta_del2             =   2.0840057215987E-03
(PID.TID 0000.0001) %MON dynstat_uvel_max             =   1.0256102762546E-01
(PID.TID 0000.0001) %MON dynstat_uvel_min             =  -1.6360995972928E-01
(PID.TID 0000.0001) %MON dynstat_uvel_mean            =   1.1388523702519E-03
(PID.TID 0000.0001) %MON dynstat_uvel_sd              =   1.0781443290151E-02
(PID.TID 0000.0001) %MON dynstat_uvel_del2            =   7.4567601285893E-05
(PID.TID 0000.0001) %MON dynstat_vvel_max             =   1.1712194216287E-01
(PID.TID 0000.0001) %MON dynstat_vvel_min             =  -1.3424187690127E-01
(PID.TID 0000.0001) %MON dynstat_vvel_mean            =   2.3756066875886E-05
(PID.TID 0000.0001) %MON dynstat_vvel_sd              =   8.9483350803310E-03
(PID.TID 0000.0001) %MON dynstat_vvel_del2            =   7.5502442309177E-05
(PID.TID 0000.0001) %MON dynstat_wvel_max             =   1.1310352722938E-04
(PID.TID 0000.0001) %MON dynstat_wvel_min             =  -1.3810481054202E-04
(PID.TID 0000.0001) %MON dynstat_wvel_mean            =  -6.1121165253205E-23
(PID.TID 0000.0001) %MON dynstat_wvel_sd              =   1.3457896447378E-05
(PID.TID 0000.0001) %MON dynstat_wvel_del2            =   1.5203647328576E-07
(PID.TID 0000.0001) %MON dynstat_theta_max            =   2.9925061783817E+01
(PID.TID 0000.0001) %MON dynstat_theta_min            =  -2.0109977157431E+00
(PID.TID 0000.0001) %MON dynstat_theta_mean           =   3.6209300304168E+00
(PID.TID 0000.0001) %MON dynstat_theta_sd             =   4.4168308447692E+00
(PID.TID 0000.0001) %MON dynstat_theta_del2           =   4.8401363719411E-03
(PID.TID 0000.0001) %MON dynstat_salt_max             =   3.7449692182489E+01
(PID.TID 0000.0001) %MON dynstat_salt_min             =   2.9805539337983E+01
(PID.TID 0000.0001) %MON dynstat_salt_mean            =   3.4717981077892E+01
(PID.TID 0000.0001) %MON dynstat_salt_sd              =   2.9623778946491E-01
(PID.TID 0000.0001) %MON dynstat_salt_del2            =   1.0023455999810E-03
(PID.TID 0000.0001) %MON dynstat_sst_max              =   2.9925061783817E+01
(PID.TID 0000.0001) %MON dynstat_sst_min              =  -2.0109977157431E+00
(PID.TID 0000.0001) %MON dynstat_sst_mean             =   1.8718100578341E+01
(PID.TID 0000.0001) %MON dynstat_sst_sd               =   9.0598693279833E+00
(PID.TID 0000.0001) %MON dynstat_sst_del2             =   2.6499071978662E-02
(PID.TID 0000.0001) %MON dynstat_sss_max              =   3.7432623787996E+01
(PID.TID 0000.0001) %MON dynstat_sss_min              =   2.9805539337983E+01
(PID.TID 0000.0001) %MON dynstat_sss_mean             =   3.4848306150604E+01
(PID.TID 0000.0001) %MON dynstat_sss_sd               =   9.7444027430589E-01
(PID.TID 0000.0001) %MON dynstat_sss_del2             =   7.8991068514029E-03
(PID.TID 0000.0001) %MON forcing_qnet_max             =   4.0510366312663E+02
(PID.TID 0000.0001) %MON forcing_qnet_min             =  -1.7738483479818E+02
(PID.TID 0000.0001) %MON forcing_qnet_mean            =  -1.5578525159607E+01
(PID.TID 0000.0001) %MON forcing_qnet_sd              =   9.8219108614254E+01
(PID.TID 0000.0001) %MON forcing_qnet_del2            =   9.8437596337033E-01
(PID.TID 0000.0001) %MON forcing_qsw_max              =   0.0000000000000E+00
(PID.TID 0000.0001) %MON forcing_qsw_min              =   0.0000000000000E+00
(PID.TID 0000.0001) %MON forcing_qsw_mean             =   0.0000000000000E+00
(PID.TID 0000.0001) %MON forcing_qsw_sd               =   0.0000000000000E+00
(PID.TID 0000.0001) %MON forcing_qsw_del2             =   0.0000000000000E+00
(PID.TID 0000.0001) %MON forcing_empmr_max            =   7.8719251916937E-05
(PID.TID 0000.0001) %MON forcing_empmr_min            =  -7.7032043085031E-05
(PID.TID 0000.0001) %MON forcing_empmr_mean           =   9.3044343197016E-07
(PID.TID 0000.0001) %MON forcing_empmr_sd             =   2.8310676615472E-05
(PID.TID 0000.0001) %MON forcing_empmr_del2           =   3.5708477950409E-07
(PID.TID 0000.0001) %MON forcing_fu_max               =   2.7827952206135E-01
(PID.TID 0000.0001) %MON forcing_fu_min               =  -1.8419379889965E-01
(PID.TID 0000.0001) %MON forcing_fu_mean              =   1.6599037522725E-02
(PID.TID 0000.0001) %MON forcing_fu_sd                =   8.9963961949749E-02
(PID.TID 0000.0001) %MON forcing_fu_del2              =   6.7044165395875E-04
(PID.TID 0000.0001) %MON forcing_fv_max               =   1.9782840361198E-01
(PID.TID 0000.0001) %MON forcing_fv_min               =  -1.6723260283470E-01
(PID.TID 0000.0001) %MON forcing_fv_mean              =  -5.9767677133721E-03
(PID.TID 0000.0001) %MON forcing_fv_sd                =   4.5481939075567E-02
(PID.TID 0000.0001) %MON forcing_fv_del2              =   4.6378982619852E-04
(PID.TID 0000.0001) %MON trAdv_CFL_u_max              =   3.2325339770324E-02
(PID.TID 0000.0001) %MON trAdv_CFL_v_max              =   2.7293487902049E-02
(PID.TID 0000.0001) %MON trAdv_CFL_w_max              =   4.6164391845853E-02
(PID.TID 0000.0001) %MON advcfl_uvel_max              =   3.2759900230741E-02
(PID.TID 0000.0001) %MON advcfl_vvel_max              =   2.6081043701055E-02
(PID.TID 0000.0001) %MON advcfl_wvel_max              =   3.7937160795616E-02
(PID.TID 0000.0001) %MON advcfl_W_hf_max              =   4.6066552394676E-02
(PID.TID 0000.0001) %MON pe_b_mean                    =   4.0833515032299E-04
(PID.TID 0000.0001) %MON ke_max                       =   1.2843099494224E-02
(PID.TID 0000.0001) %MON ke_mean                      =   8.9347011565244E-05
(PID.TID 0000.0001) %MON ke_vol                       =   1.3226782436723E+18
(PID.TID 0000.0001) %MON vort_r_min                   =  -2.3479743708835E-07
(PID.TID 0000.0001) %MON vort_r_max                   =   3.6752484463244E-07
(PID.TID 0000.0001) %MON vort_a_mean                  =  -2.5274807084102E-05
(PID.TID 0000.0001) %MON vort_a_sd                    =   7.3604508507409E-05
(PID.TID 0000.0001) %MON vort_p_mean                  =  -3.1845655404660E-05
(PID.TID 0000.0001) %MON vort_p_sd                    =   1.3162540488715E-04
(PID.TID 0000.0001) %MON surfExpan_theta_mean         =  -2.7927631501517E-08
(PID.TID 0000.0001) %MON surfExpan_salt_mean          =   4.8864824690886E-08
(PID.TID 0000.0001) // =======================================================
(PID.TID 0000.0001) // End MONITOR dynamic field statistics
(PID.TID 0000.0001) // =======================================================
 EXTERNAL_FIELDS_LOAD,        27 : iP,iLd,i0,i1=    1    2    1    2 ; Wght=  0.6000000000  0.4000000000
 EXTERNAL_FIELDS_LOAD: (fu0,1),fu,fv= -3.5633E-02 -1.4435E-02 -2.7154E-02 -4.1408E-02
 EXTERNAL_FIELDS_LOAD: SST,SSS,Q,E-P=  3.6231E-01  3.4597E+01  2.5565E+02  1.0333E-05
DEBUG_STATS_RL:          Uvel (THERMODYNAMICS)  min= -1.63609959729280E-01
DEBUG_STATS_RL:          Uvel (THERMODYNAMICS)  max=  1.02561027625464E-01
DEBUG_STATS_RL:          Uvel (THERMODYNAMICS) mean=  2.13523491493653E-03
DEBUG_STATS_RL:          Uvel (THERMODYNAMICS) S.D.=  1.71656019052438E-02
DEBUG_STATS_RL:          Vvel (THERMODYNAMICS)  min= -1.34241876901270E-01
DEBUG_STATS_RL:          Vvel (THERMODYNAMICS)  max=  1.17121942162866E-01
DEBUG_STATS_RL:          Vvel (THERMODYNAMICS) mean=  1.32863703995121E-03
DEBUG_STATS_RL:          Vvel (THERMODYNAMICS) S.D.=  1.45714958875524E-02
DEBUG_STATS_RL:          Wvel (THERMODYNAMICS)  min= -1.38104810542022E-04
DEBUG_STATS_RL:          Wvel (THERMODYNAMICS)  max=  1.13103527229384E-04
DEBUG_STATS_RL:          Wvel (THERMODYNAMICS) mean=  2.59162792797638E-07
DEBUG_STATS_RL:          Wvel (THERMODYNAMICS) S.D.=  1.19566587934734E-05
DEBUG_STATS_RL:         Theta (THERMODYNAMICS)  min= -2.01026793145670E+00
DEBUG_STATS_RL:         Theta (THERMODYNAMICS)  max=  2.99401350127198E+01
DEBUG_STATS_RL:         Theta (THERMODYNAMICS) mean=  3.20884014347517E+00
DEBUG_STATS_RL:         Theta (THERMODYNAMICS) S.D.=  5.85848483978426E+00
DEBUG_STATS_RL:          Salt (THERMODYNAMICS)  min= -1.04083408558608E-17
DEBUG_STATS_RL:          Salt (THERMODYNAMICS)  max=  3.74506563806539E+01
DEBUG_STATS_RL:          Salt (THERMODYNAMICS) mean=  1.88450125185339E+01
DEBUG_STATS_RL:          Salt (THERMODYNAMICS) S.D.=  1.73005108856896E+01
DEBUG_STATS_RL:         GtNm1 (THERMODYNAMICS)  min= -3.06084694576042E-06
DEBUG_STATS_RL:         GtNm1 (THERMODYNAMICS)  max=  2.63375890044005E-06
DEBUG_STATS_RL:         GtNm1 (THERMODYNAMICS) mean=  4.91937993659766E-10
DEBUG_STATS_RL:         GtNm1 (THERMODYNAMICS) S.D.=  2.21808553742160E-07
DEBUG_STATS_RL:         GsNm1 (THERMODYNAMICS)  min= -5.23096308099619E-07
DEBUG_STATS_RL:         GsNm1 (THERMODYNAMICS)  max=  3.44506342672710E-07
DEBUG_STATS_RL:         GsNm1 (THERMODYNAMICS) mean= -7.22161216430635E-10
DEBUG_STATS_RL:         GsNm1 (THERMODYNAMICS) S.D.=  1.98539329655644E-08
DEBUG_STATS_RL:                EtaN (DYNAMICS)  min= -1.69573018212539E+00
DEBUG_STATS_RL:                EtaN (DYNAMICS)  max=  9.03003365268299E-01
DEBUG_STATS_RL:                EtaN (DYNAMICS) mean= -1.66330739475184E-01
DEBUG_STATS_RL:                EtaN (DYNAMICS) S.D.=  6.45579832584519E-01
DEBUG_STATS_RL:                Uvel (DYNAMICS)  min= -1.63609959729280E-01
DEBUG_STATS_RL:                Uvel (DYNAMICS)  max=  1.02561027625464E-01
DEBUG_STATS_RL:                Uvel (DYNAMICS) mean=  2.13523491493653E-03
DEBUG_STATS_RL:                Uvel (DYNAMICS) S.D.=  1.71656019052438E-02
DEBUG_STATS_RL:                Vvel (DYNAMICS)  min= -1.34241876901270E-01
DEBUG_STATS_RL:                Vvel (DYNAMICS)  max=  1.17121942162866E-01
DEBUG_STATS_RL:                Vvel (DYNAMICS) mean=  1.32863703995121E-03
DEBUG_STATS_RL:                Vvel (DYNAMICS) S.D.=  1.45714958875524E-02
DEBUG_STATS_RL:                Wvel (DYNAMICS)  min= -1.38104810542022E-04
DEBUG_STATS_RL:                Wvel (DYNAMICS)  max=  1.13103527229384E-04
DEBUG_STATS_RL:                Wvel (DYNAMICS) mean=  2.59162792797638E-07
DEBUG_STATS_RL:                Wvel (DYNAMICS) S.D.=  1.19566587934734E-05
DEBUG_STATS_RL:               Theta (DYNAMICS)  min= -2.01026793145670E+00
DEBUG_STATS_RL:               Theta (DYNAMICS)  max=  2.99401350127198E+01
DEBUG_STATS_RL:               Theta (DYNAMICS) mean=  3.20884014347517E+00
DEBUG_STATS_RL:               Theta (DYNAMICS) S.D.=  5.85848483978426E+00
DEBUG_STATS_RL:                Salt (DYNAMICS)  min= -1.04083408558608E-17
DEBUG_STATS_RL:                Salt (DYNAMICS)  max=  3.74506563806539E+01
DEBUG_STATS_RL:                Salt (DYNAMICS) mean=  1.88450125185339E+01
DEBUG_STATS_RL:                Salt (DYNAMICS) S.D.=  1.73005108856896E+01
DEBUG_STATS_RL:                  Gu (DYNAMICS)  min= -1.66670786138213E-01
DEBUG_STATS_RL:                  Gu (DYNAMICS)  max=  9.88758787278333E-02
DEBUG_STATS_RL:                  Gu (DYNAMICS) mean=  1.70333235340723E-03
DEBUG_STATS_RL:                  Gu (DYNAMICS) S.D.=  1.71194918142569E-02
DEBUG_STATS_RL:                  Gv (DYNAMICS)  min= -1.40431992523729E-01
DEBUG_STATS_RL:                  Gv (DYNAMICS)  max=  1.22533278000029E-01
DEBUG_STATS_RL:                  Gv (DYNAMICS) mean=  3.25432637049374E-03
DEBUG_STATS_RL:                  Gv (DYNAMICS) S.D.=  1.57200715835266E-02
DEBUG_STATS_RL:               GuNm1 (DYNAMICS)  min= -7.88416967183708E-06
DEBUG_STATS_RL:               GuNm1 (DYNAMICS)  max=  7.67282718514265E-06
DEBUG_STATS_RL:               GuNm1 (DYNAMICS) mean= -1.44831655998081E-08
DEBUG_STATS_RL:               GuNm1 (DYNAMICS) S.D.=  1.19716582997972E-06
DEBUG_STATS_RL:               GvNm1 (DYNAMICS)  min= -1.06497455723242E-05
DEBUG_STATS_RL:               GvNm1 (DYNAMICS)  max=  1.67479919163755E-05
DEBUG_STATS_RL:               GvNm1 (DYNAMICS) mean=  7.63663517930368E-07
DEBUG_STATS_RL:               GvNm1 (DYNAMICS) S.D.=  2.64557841900399E-06
DEBUG_STATS_RL:               GtNm1 (DYNAMICS)  min= -3.06084694576042E-06
DEBUG_STATS_RL:               GtNm1 (DYNAMICS)  max=  2.63375890044005E-06
DEBUG_STATS_RL:               GtNm1 (DYNAMICS) mean=  4.91937993659766E-10
DEBUG_STATS_RL:               GtNm1 (DYNAMICS) S.D.=  2.21808553742160E-07
DEBUG_STATS_RL:               GsNm1 (DYNAMICS)  min= -5.23096308099619E-07
DEBUG_STATS_RL:               GsNm1 (DYNAMICS)  max=  3.44506342672710E-07
DEBUG_STATS_RL:               GsNm1 (DYNAMICS) mean= -7.22161216430635E-10
DEBUG_STATS_RL:               GsNm1 (DYNAMICS) S.D.=  1.98539329655644E-08
DEBUG_STATS_RL:    cg2d_b (SOLVE_FOR_PRESSURE)  min= -2.24287179009620E+04
DEBUG_STATS_RL:    cg2d_b (SOLVE_FOR_PRESSURE)  max=  1.88353309167183E+04
DEBUG_STATS_RL:    cg2d_b (SOLVE_FOR_PRESSURE) mean=  1.97804134396530E+00
DEBUG_STATS_RL:    cg2d_b (SOLVE_FOR_PRESSURE) S.D.=  3.76717765196937E+03
 cg2d: Sum(rhs),rhsMax =   2.04165290744629E-01  1.47317824296117E+00
(PID.TID 0000.0001)  cg2d: iter=     1 ; resid.=  1.10632265012411E-01
(PID.TID 0000.0001)  cg2d: iter=     2 ; resid.=  5.73733765166967E-02
(PID.TID 0000.0001)  cg2d: iter=     3 ; resid.=  4.35146302475652E-02
(PID.TID 0000.0001)  cg2d: iter=     4 ; resid.=  4.20625477731696E-02
(PID.TID 0000.0001)  cg2d: iter=     5 ; resid.=  4.33754564466203E-02
(PID.TID 0000.0001)  cg2d: iter=     6 ; resid.=  3.96877345635481E-02
(PID.TID 0000.0001)  cg2d: iter=     7 ; resid.=  3.50277009849996E-02
(PID.TID 0000.0001)  cg2d: iter=     8 ; resid.=  2.76701125805394E-02
(PID.TID 0000.0001)  cg2d: iter=     9 ; resid.=  2.17502733227535E-02
(PID.TID 0000.0001)  cg2d: iter=    10 ; resid.=  1.76590703569842E-02
(PID.TID 0000.0001)  cg2d: iter=    11 ; resid.=  1.42201509203780E-02
(PID.TID 0000.0001)  cg2d: iter=    12 ; resid.=  1.17778599938652E-02
(PID.TID 0000.0001)  cg2d: iter=    13 ; resid.=  1.05188311089994E-02
(PID.TID 0000.0001)  cg2d: iter=    14 ; resid.=  8.59157513554485E-03
(PID.TID 0000.0001)  cg2d: iter=    15 ; resid.=  7.20492712100622E-03
(PID.TID 0000.0001)  cg2d: iter=    16 ; resid.=  5.61899603400720E-03
(PID.TID 0000.0001)  cg2d: iter=    17 ; resid.=  4.89480337991796E-03
(PID.TID 0000.0001)  cg2d: iter=    18 ; resid.=  4.55831445861142E-03
(PID.TID 0000.0001)  cg2d: iter=    19 ; resid.=  3.97794697584678E-03
(PID.TID 0000.0001)  cg2d: iter=    20 ; resid.=  3.35438529984576E-03
(PID.TID 0000.0001)  cg2d: iter=    21 ; resid.=  2.64420602473558E-03
(PID.TID 0000.0001)  cg2d: iter=    22 ; resid.=  2.10275829951067E-03
(PID.TID 0000.0001)  cg2d: iter=    23 ; resid.=  1.71461327425074E-03
(PID.TID 0000.0001)  cg2d: iter=    24 ; resid.=  1.43268187332354E-03
(PID.TID 0000.0001)  cg2d: iter=    25 ; resid.=  1.17636012904362E-03
(PID.TID 0000.0001)  cg2d: iter=    26 ; resid.=  9.58590834486315E-04
(PID.TID 0000.0001)  cg2d: iter=    27 ; resid.=  7.88246537395092E-04
(PID.TID 0000.0001)  cg2d: iter=    28 ; resid.=  6.70490759448182E-04
(PID.TID 0000.0001)  cg2d: iter=    29 ; resid.=  5.77233148984904E-04
(PID.TID 0000.0001)  cg2d: iter=    30 ; resid.=  4.68765473149929E-04
(PID.TID 0000.0001)  cg2d: iter=    31 ; resid.=  3.79735111852730E-04
(PID.TID 0000.0001)  cg2d: iter=    32 ; resid.=  3.11806357948634E-04
(PID.TID 0000.0001)  cg2d: iter=    33 ; resid.=  2.56949831453623E-04
(PID.TID 0000.0001)  cg2d: iter=    34 ; resid.=  2.05260634559091E-04
(PID.TID 0000.0001)  cg2d: iter=    35 ; resid.=  1.60628349014575E-04
(PID.TID 0000.0001)  cg2d: iter=    36 ; resid.=  1.33132990053597E-04
(PID.TID 0000.0001)  cg2d: iter=    37 ; resid.=  1.15689745433681E-04
(PID.TID 0000.0001)  cg2d: iter=    38 ; resid.=  1.06114716134803E-04
(PID.TID 0000.0001)  cg2d: iter=    39 ; resid.=  9.59205227718423E-05
(PID.TID 0000.0001)  cg2d: iter=    40 ; resid.=  8.50797573942790E-05
(PID.TID 0000.0001)  cg2d: iter=    41 ; resid.=  7.45325369712254E-05
(PID.TID 0000.0001)  cg2d: iter=    42 ; resid.=  6.32770042539304E-05
(PID.TID 0000.0001)  cg2d: iter=    43 ; resid.=  5.30168578808299E-05
(PID.TID 0000.0001)  cg2d: iter=    44 ; resid.=  4.12997210462543E-05
(PID.TID 0000.0001)  cg2d: iter=    45 ; resid.=  3.49355888445074E-05
(PID.TID 0000.0001)  cg2d: iter=    46 ; resid.=  2.90226956584721E-05
(PID.TID 0000.0001)  cg2d: iter=    47 ; resid.=  2.42349371245975E-05
(PID.TID 0000.0001)  cg2d: iter=    48 ; resid.=  1.90440225223132E-05
(PID.TID 0000.0001)  cg2d: iter=    49 ; resid.=  1.48982477801593E-05
(PID.TID 0000.0001)  cg2d: iter=    50 ; resid.=  1.22683286156314E-05
(PID.TID 0000.0001)  cg2d: iter=    51 ; resid.=  1.03909214974458E-05
(PID.TID 0000.0001)  cg2d: iter=    52 ; resid.=  8.54911297209699E-06
(PID.TID 0000.0001)  cg2d: iter=    53 ; resid.=  7.15557908665747E-06
(PID.TID 0000.0001)  cg2d: iter=    54 ; resid.=  6.63918069183627E-06
(PID.TID 0000.0001)  cg2d: iter=    55 ; resid.=  6.16200953008267E-06
(PID.TID 0000.0001)  cg2d: iter=    56 ; resid.=  5.34889620753162E-06
(PID.TID 0000.0001)  cg2d: iter=    57 ; resid.=  4.06793480015165E-06
(PID.TID 0000.0001)  cg2d: iter=    58 ; resid.=  3.04567926830561E-06
(PID.TID 0000.0001)  cg2d: iter=    59 ; resid.=  2.24130944379079E-06
(PID.TID 0000.0001)  cg2d: iter=    60 ; resid.=  1.78268940161299E-06
(PID.TID 0000.0001)  cg2d: iter=    61 ; resid.=  1.48576427497708E-06
(PID.TID 0000.0001)  cg2d: iter=    62 ; resid.=  1.20285347043508E-06
(PID.TID 0000.0001)  cg2d: iter=    63 ; resid.=  9.41896837750862E-07
(PID.TID 0000.0001)  cg2d: iter=    64 ; resid.=  6.98778757458205E-07
(PID.TID 0000.0001)  cg2d: iter=    65 ; resid.=  5.36894532145219E-07
(PID.TID 0000.0001)  cg2d: iter=    66 ; resid.=  4.58554633046099E-07
(PID.TID 0000.0001)  cg2d: iter=    67 ; resid.=  3.75365568169020E-07
(PID.TID 0000.0001)  cg2d: iter=    68 ; resid.=  3.11678663367157E-07
(PID.TID 0000.0001)  cg2d: iter=    69 ; resid.=  2.61476271271946E-07
(PID.TID 0000.0001)  cg2d: iter=    70 ; resid.=  2.26538376353304E-07
(PID.TID 0000.0001)  cg2d: iter=    71 ; resid.=  2.11673265947274E-07
(PID.TID 0000.0001)  cg2d: iter=    72 ; resid.=  1.81145950858737E-07
(PID.TID 0000.0001)  cg2d: iter=    73 ; resid.=  1.45434506934104E-07
(PID.TID 0000.0001)  cg2d: iter=    74 ; resid.=  1.13174426261377E-07
(PID.TID 0000.0001)  cg2d: iter=    75 ; resid.=  8.89433513000464E-08
(PID.TID 0000.0001)  cg2d: iter=    76 ; resid.=  7.61605047377052E-08
(PID.TID 0000.0001)  cg2d: iter=    77 ; resid.=  6.72191555785628E-08
(PID.TID 0000.0001)  cg2d: iter=    78 ; resid.=  5.67866197547965E-08
(PID.TID 0000.0001)  cg2d: iter=    79 ; resid.=  4.66162047506265E-08
(PID.TID 0000.0001)  cg2d: iter=    80 ; resid.=  3.53494067026466E-08
(PID.TID 0000.0001)  cg2d: iter=    81 ; resid.=  2.81350324164857E-08
(PID.TID 0000.0001)  cg2d: iter=    82 ; resid.=  2.41218233978165E-08
(PID.TID 0000.0001)  cg2d: iter=    83 ; resid.=  2.03755216969114E-08
(PID.TID 0000.0001)  cg2d: iter=    84 ; resid.=  1.54578271859971E-08
(PID.TID 0000.0001)  cg2d: iter=    85 ; resid.=  1.04910633004070E-08
(PID.TID 0000.0001)  cg2d: iter=    86 ; resid.=  7.13701335897454E-09
(PID.TID 0000.0001)  cg2d: iter=    87 ; resid.=  5.27633263348632E-09
(PID.TID 0000.0001)  cg2d: iter=    88 ; resid.=  4.08326823898748E-09
(PID.TID 0000.0001)  cg2d: iter=    89 ; resid.=  3.29644049858999E-09
(PID.TID 0000.0001)  cg2d: iter=    90 ; resid.=  2.65789949965340E-09
(PID.TID 0000.0001)  cg2d: iter=    91 ; resid.=  2.24639399774409E-09
(PID.TID 0000.0001)  cg2d: iter=    92 ; resid.=  2.04194758827280E-09
(PID.TID 0000.0001)  cg2d: iter=    93 ; resid.=  1.64453914958325E-09
(PID.TID 0000.0001)  cg2d: iter=    94 ; resid.=  1.19094662553232E-09
(PID.TID 0000.0001)  cg2d: iter=    95 ; resid.=  8.67373172621303E-10
(PID.TID 0000.0001)  cg2d: iter=    96 ; resid.=  7.16695446952100E-10
(PID.TID 0000.0001)  cg2d: iter=    97 ; resid.=  6.10340566039696E-10
(PID.TID 0000.0001)  cg2d: iter=    98 ; resid.=  5.13738821904456E-10
(PID.TID 0000.0001)  cg2d: iter=    99 ; resid.=  4.21935837314266E-10
(PID.TID 0000.0001)  cg2d: iter=   100 ; resid.=  3.52692758205957E-10
(PID.TID 0000.0001)  cg2d: iter=   101 ; resid.=  3.02122308887405E-10
(PID.TID 0000.0001)  cg2d: iter=   102 ; resid.=  2.42269377790599E-10
(PID.TID 0000.0001)  cg2d: iter=   103 ; resid.=  1.80562263969387E-10
(PID.TID 0000.0001)  cg2d: iter=   104 ; resid.=  1.52095678704064E-10
(PID.TID 0000.0001)  cg2d: iter=   105 ; resid.=  1.30797878119740E-10
(PID.TID 0000.0001)  cg2d: iter=   106 ; resid.=  1.06045461965419E-10
(PID.TID 0000.0001)  cg2d: iter=   107 ; resid.=  8.24044388154408E-11
(PID.TID 0000.0001)  cg2d: iter=   108 ; resid.=  5.92571047500189E-11
(PID.TID 0000.0001)  cg2d: iter=   109 ; resid.=  4.47541018289787E-11
(PID.TID 0000.0001)  cg2d: iter=   110 ; resid.=  3.23660026143332E-11
(PID.TID 0000.0001)  cg2d: iter=   111 ; resid.=  2.38550065962846E-11
(PID.TID 0000.0001)  cg2d: iter=   112 ; resid.=  1.89212385039334E-11
(PID.TID 0000.0001)  cg2d: iter=   113 ; resid.=  1.54070677030941E-11
(PID.TID 0000.0001)  cg2d: iter=   114 ; resid.=  1.20823036196584E-11
(PID.TID 0000.0001)  cg2d: iter=   115 ; resid.=  9.07190954933780E-12
(PID.TID 0000.0001)  cg2d: iter=   116 ; resid.=  7.14499637891835E-12
(PID.TID 0000.0001)  cg2d: iter=   117 ; resid.=  5.40103443097074E-12
(PID.TID 0000.0001)  cg2d: iter=   118 ; resid.=  4.06682654337578E-12
(PID.TID 0000.0001)  cg2d: iter=   119 ; resid.=  3.13617360179697E-12
(PID.TID 0000.0001)  cg2d: iter=   120 ; resid.=  2.52958969967594E-12
(PID.TID 0000.0001)  cg2d: iter=   121 ; resid.=  2.03559293639405E-12
(PID.TID 0000.0001)  cg2d: iter=   122 ; resid.=  1.57384733574693E-12
(PID.TID 0000.0001)  cg2d: iter=   123 ; resid.=  1.18294628623432E-12
(PID.TID 0000.0001)  cg2d: iter=   124 ; resid.=  8.50326248626023E-13
(PID.TID 0000.0001)  cg2d: iter=   125 ; resid.=  6.34085609942865E-13
(PID.TID 0000.0001)  cg2d: iter=   126 ; resid.=  4.83337313793178E-13
(PID.TID 0000.0001)  cg2d: iter=   127 ; resid.=  3.33155994319449E-13
(PID.TID 0000.0001)  cg2d: iter=   128 ; resid.=  2.06054601658266E-13
(PID.TID 0000.0001)  cg2d: iter=   129 ; resid.=  1.31166954722664E-13
(PID.TID 0000.0001)  cg2d: iter=   130 ; resid.=  9.20498105220600E-14
DEBUG_STATS_RL:    cg2d_x (SOLVE_FOR_PRESSURE)  min= -1.66313642630735E+01
DEBUG_STATS_RL:    cg2d_x (SOLVE_FOR_PRESSURE)  max=  8.84445900093348E+00
DEBUG_STATS_RL:    cg2d_x (SOLVE_FOR_PRESSURE) mean= -1.63025947704968E+00
DEBUG_STATS_RL:    cg2d_x (SOLVE_FOR_PRESSURE) S.D.=  6.31610294910365E+00
(PID.TID 0000.0001)      cg2d_init_res =   4.17234226766890E-01
(PID.TID 0000.0001)      cg2d_iters(min,last) =      -1     130
(PID.TID 0000.0001)      cg2d_last_res =   9.20498105220600E-14
(PID.TID 0000.0001) // =======================================================
(PID.TID 0000.0001) // Begin MONITOR dynamic field statistics
(PID.TID 0000.0001) // =======================================================
(PID.TID 0000.0001) %MON time_tsnumber                =                    28
(PID.TID 0000.0001) %MON time_secondsf                =   2.4192000000000E+06
(PID.TID 0000.0001) %MON dynstat_eta_max              =   9.0157584107380E-01
(PID.TID 0000.0001) %MON dynstat_eta_min              =  -1.6953480390492E+00
(PID.TID 0000.0001) %MON dynstat_eta_mean             =  -2.0638408733981E-03
(PID.TID 0000.0001) %MON dynstat_eta_sd               =   5.6268355024865E-01
(PID.TID 0000.0001) %MON dynstat_eta_del2             =   2.1087247363221E-03
(PID.TID 0000.0001) %MON dynstat_uvel_max             =   9.0002180513212E-02
(PID.TID 0000.0001) %MON dynstat_uvel_min             =  -1.6518562678006E-01
(PID.TID 0000.0001) %MON dynstat_uvel_mean            =   1.0935974832276E-03
(PID.TID 0000.0001) %MON dynstat_uvel_sd              =   1.0545876227050E-02
(PID.TID 0000.0001) %MON dynstat_uvel_del2            =   7.3426897027952E-05
(PID.TID 0000.0001) %MON dynstat_vvel_max             =   1.1458012128875E-01
(PID.TID 0000.0001) %MON dynstat_vvel_min             =  -1.3212084794734E-01
(PID.TID 0000.0001) %MON dynstat_vvel_mean            =   2.5214865251346E-05
(PID.TID 0000.0001) %MON dynstat_vvel_sd              =   8.6508961968784E-03
(PID.TID 0000.0001) %MON dynstat_vvel_del2            =   7.3603933221248E-05
(PID.TID 0000.0001) %MON dynstat_wvel_max             =   1.1071485765935E-04
(PID.TID 0000.0001) %MON dynstat_wvel_min             =  -1.3124789411055E-04
(PID.TID 0000.0001) %MON dynstat_wvel_mean            =   1.0918262003975E-22
(PID.TID 0000.0001) %MON dynstat_wvel_sd              =   1.2979333532183E-05
(PID.TID 0000.0001) %MON dynstat_wvel_del2            =   1.5086743971625E-07
(PID.TID 0000.0001) %MON dynstat_theta_max            =   2.9940135012720E+01
(PID.TID 0000.0001) %MON dynstat_theta_min            =  -2.0102679314567E+00
(PID.TID 0000.0001) %MON dynstat_theta_mean           =   3.6210165485921E+00
(PID.TID 0000.0001) %MON dynstat_theta_sd             =   4.4169980454411E+00
(PID.TID 0000.0001) %MON dynstat_theta_del2           =   4.8392170758508E-03
(PID.TID 0000.0001) %MON dynstat_salt_max             =   3.7450656380654E+01
(PID.TID 0000.0001) %MON dynstat_salt_min             =   2.9808509228576E+01
(PID.TID 0000.0001) %MON dynstat_salt_mean            =   3.4717981001561E+01
(PID.TID 0000.0001) %MON dynstat_salt_sd              =   2.9624018879639E-01
(PID.TID 0000.0001) %MON dynstat_salt_del2            =   1.0006445041325E-03
(PID.TID 0000.0001) %MON dynstat_sst_max              =   2.9940135012720E+01
(PID.TID 0000.0001) %MON dynstat_sst_min              =  -2.0102679314567E+00
(PID.TID 0000.0001) %MON dynstat_sst_mean             =   1.8723980126815E+01
(PID.TID 0000.0001) %MON dynstat_sst_sd               =   9.0585627512620E+00
(PID.TID 0000.0001) %MON dynstat_sst_del2             =   2.6540771169952E-02
(PID.TID 0000.0001) %MON dynstat_sss_max              =   3.7432881459406E+01
(PID.TID 0000.0001) %MON dynstat_sss_min              =   2.9808509228576E+01
(PID.TID 0000.0001) %MON dynstat_sss_mean             =   3.4847753058624E+01
(PID.TID 0000.0001) %MON dynstat_sss_sd               =   9.7475921408252E-01
(PID.TID 0000.0001) %MON dynstat_sss_del2             =   7.8806475329423E-03
(PID.TID 0000.0001) %MON forcing_qnet_max             =   4.0178457641602E+02
(PID.TID 0000.0001) %MON forcing_qnet_min             =  -1.7714531555176E+02
(PID.TID 0000.0001) %MON forcing_qnet_mean            =  -1.5493615992204E+01
(PID.TID 0000.0001) %MON forcing_qnet_sd              =   9.7185485181804E+01
(PID.TID 0000.0001) %MON forcing_qnet_del2            =   9.8140782401500E-01
(PID.TID 0000.0001) %MON forcing_qsw_max              =   0.0000000000000E+00
(PID.TID 0000.0001) %MON forcing_qsw_min              =   0.0000000000000E+00
(PID.TID 0000.0001) %MON forcing_qsw_mean             =   0.0000000000000E+00
(PID.TID 0000.0001) %MON forcing_qsw_sd               =   0.0000000000000E+00
(PID.TID 0000.0001) %MON forcing_qsw_del2             =   0.0000000000000E+00
(PID.TID 0000.0001) %MON forcing_empmr_max            =   7.8405162184936E-05
(PID.TID 0000.0001) %MON forcing_empmr_min            =  -7.7111687346587E-05
(PID.TID 0000.0001) %MON forcing_empmr_mean           =   9.3112582923013E-07
(PID.TID 0000.0001) %MON forcing_empmr_sd             =   2.8276845244070E-05
(PID.TID 0000.0001) %MON forcing_empmr_del2           =   3.5648229163624E-07
(PID.TID 0000.0001) %MON forcing_fu_max               =   2.7966668009758E-01
(PID.TID 0000.0001) %MON forcing_fu_min               =  -1.8585372269154E-01
(PID.TID 0000.0001) %MON forcing_fu_mean              =   1.6653337738194E-02
(PID.TID 0000.0001) %MON forcing_fu_sd                =   8.9968991920605E-02
(PID.TID 0000.0001) %MON forcing_fu_del2              =   6.6906282054806E-04
(PID.TID 0000.0001) %MON forcing_fv_max               =   1.9461995661259E-01
(PID.TID 0000.0001) %MON forcing_fv_min               =  -1.6624130308628E-01
(PID.TID 0000.0001) %MON forcing_fv_mean              =  -6.0420286200872E-03
(PID.TID 0000.0001) %MON forcing_fv_sd                =   4.5317127835513E-02
(PID.TID 0000.0001) %MON forcing_fv_del2              =   4.6354194610910E-04
(PID.TID 0000.0001) %MON trAdv_CFL_u_max              =   3.2766554000781E-02
(PID.TID 0000.0001) %MON trAdv_CFL_v_max              =   2.6781732420586E-02
(PID.TID 0000.0001) %MON trAdv_CFL_w_max              =   4.6066552394676E-02
(PID.TID 0000.0001) %MON advcfl_uvel_max              =   3.3075398721578E-02
(PID.TID 0000.0001) %MON advcfl_vvel_max              =   2.5668961792521E-02
(PID.TID 0000.0001) %MON advcfl_wvel_max              =   3.7691575988962E-02
(PID.TID 0000.0001) %MON advcfl_W_hf_max              =   4.5768342272311E-02
(PID.TID 0000.0001) %MON pe_b_mean                    =   4.0514966179344E-04
(PID.TID 0000.0001) %MON ke_max                       =   1.3090843743979E-02
(PID.TID 0000.0001) %MON ke_mean                      =   8.4668574523153E-05
(PID.TID 0000.0001) %MON ke_vol                       =   1.3226782436723E+18
(PID.TID 0000.0001) %MON vort_r_min                   =  -2.5251646637930E-07
(PID.TID 0000.0001) %MON vort_r_max                   =   3.7746022078138E-07
(PID.TID 0000.0001) %MON vort_a_mean                  =  -2.5274807071486E-05
(PID.TID 0000.0001) %MON vort_a_sd                    =   7.3604502082899E-05
(PID.TID 0000.0001) %MON vort_p_mean                  =  -3.1845655388764E-05
(PID.TID 0000.0001) %MON vort_p_sd                    =   1.3162543299799E-04
(PID.TID 0000.0001) %MON surfExpan_theta_mean         =   2.0667068937136E-08
(PID.TID 0000.0001) %MON surfExpan_salt_mean          =   4.6547831450879E-08
(PID.TID 0000.0001) // =======================================================
(PID.TID 0000.0001) // End MONITOR dynamic field statistics
(PID.TID 0000.0001) // =======================================================
 EXTERNAL_FIELDS_LOAD,        28 : iP,iLd,i0,i1=    1    2    1    2 ; Wght=  0.5666666667  0.4333333333
 EXTERNAL_FIELDS_LOAD: (fu0,1),fu,fv= -3.5633E-02 -1.4435E-02 -2.6447E-02 -4.0088E-02
 EXTERNAL_FIELDS_LOAD: SST,SSS,Q,E-P=  3.1264E-01  3.4587E+01  2.5481E+02  1.0224E-05
DEBUG_STATS_RL:          Uvel (THERMODYNAMICS)  min= -1.65185626780061E-01
DEBUG_STATS_RL:          Uvel (THERMODYNAMICS)  max=  9.00021805132121E-02
DEBUG_STATS_RL:          Uvel (THERMODYNAMICS) mean=  1.78773456273974E-03
DEBUG_STATS_RL:          Uvel (THERMODYNAMICS) S.D.=  1.67693756985288E-02
DEBUG_STATS_RL:          Vvel (THERMODYNAMICS)  min= -1.32120847947336E-01
DEBUG_STATS_RL:          Vvel (THERMODYNAMICS)  max=  1.14580121288746E-01
DEBUG_STATS_RL:          Vvel (THERMODYNAMICS) mean=  1.08341911530736E-03
DEBUG_STATS_RL:          Vvel (THERMODYNAMICS) S.D.=  1.39916582904385E-02
DEBUG_STATS_RL:          Wvel (THERMODYNAMICS)  min= -1.31247894110545E-04
DEBUG_STATS_RL:          Wvel (THERMODYNAMICS)  max=  1.10714857659346E-04
DEBUG_STATS_RL:          Wvel (THERMODYNAMICS) mean=  1.75283839280986E-07
DEBUG_STATS_RL:          Wvel (THERMODYNAMICS) S.D.=  1.15145645877660E-05
DEBUG_STATS_RL:         Theta (THERMODYNAMICS)  min= -2.00950965331109E+00
DEBUG_STATS_RL:         Theta (THERMODYNAMICS)  max=  2.99563118701175E+01
DEBUG_STATS_RL:         Theta (THERMODYNAMICS) mean=  3.20894071684848E+00
DEBUG_STATS_RL:         Theta (THERMODYNAMICS) S.D.=  5.85864802791830E+00
DEBUG_STATS_RL:          Salt (THERMODYNAMICS)  min= -1.04083408558608E-17
DEBUG_STATS_RL:          Salt (THERMODYNAMICS)  max=  3.74515308081218E+01
DEBUG_STATS_RL:          Salt (THERMODYNAMICS) mean=  1.88449800536972E+01
DEBUG_STATS_RL:          Salt (THERMODYNAMICS) S.D.=  1.73004814242611E+01
DEBUG_STATS_RL:         GtNm1 (THERMODYNAMICS)  min= -2.88952595887054E-06
DEBUG_STATS_RL:         GtNm1 (THERMODYNAMICS)  max=  2.61006910463112E-06
DEBUG_STATS_RL:         GtNm1 (THERMODYNAMICS) mean=  1.76302374455077E-09
DEBUG_STATS_RL:         GtNm1 (THERMODYNAMICS) S.D.=  2.17289692795206E-07
DEBUG_STATS_RL:         GsNm1 (THERMODYNAMICS)  min= -5.13102498253781E-07
DEBUG_STATS_RL:         GsNm1 (THERMODYNAMICS)  max=  2.96244289564241E-07
DEBUG_STATS_RL:         GsNm1 (THERMODYNAMICS) mean= -7.23437764494191E-10
DEBUG_STATS_RL:         GsNm1 (THERMODYNAMICS) S.D.=  1.91474040582583E-08
DEBUG_STATS_RL:                EtaN (DYNAMICS)  min= -1.69534803904918E+00
DEBUG_STATS_RL:                EtaN (DYNAMICS)  max=  9.01575841073796E-01
DEBUG_STATS_RL:                EtaN (DYNAMICS) mean= -1.66183432930651E-01
DEBUG_STATS_RL:                EtaN (DYNAMICS) S.D.=  6.43843317951442E-01
DEBUG_STATS_RL:                Uvel (DYNAMICS)  min= -1.65185626780061E-01
DEBUG_STATS_RL:                Uvel (DYNAMICS)  max=  9.00021805132121E-02
DEBUG_STATS_RL:                Uvel (DYNAMICS) mean=  1.78773456273974E-03
DEBUG_STATS_RL:                Uvel (DYNAMICS) S.D.=  1.67693756985288E-02
DEBUG_STATS_RL:                Vvel (DYNAMICS)  min= -1.32120847947336E-01
DEBUG_STATS_RL:                Vvel (DYNAMICS)  max=  1.14580121288746E-01
DEBUG_STATS_RL:                Vvel (DYNAMICS) mean=  1.08341911530736E-03
DEBUG_STATS_RL:                Vvel (DYNAMICS) S.D.=  1.39916582904385E-02
DEBUG_STATS_RL:                Wvel (DYNAMICS)  min= -1.31247894110545E-04
DEBUG_STATS_RL:                Wvel (DYNAMICS)  max=  1.10714857659346E-04
DEBUG_STATS_RL:                Wvel (DYNAMICS) mean=  1.75283839280986E-07
DEBUG_STATS_RL:                Wvel (DYNAMICS) S.D.=  1.15145645877660E-05
DEBUG_STATS_RL:               Theta (DYNAMICS)  min= -2.00950965331109E+00
DEBUG_STATS_RL:               Theta (DYNAMICS)  max=  2.99563118701175E+01
DEBUG_STATS_RL:               Theta (DYNAMICS) mean=  3.20894071684848E+00
DEBUG_STATS_RL:               Theta (DYNAMICS) S.D.=  5.85864802791830E+00
DEBUG_STATS_RL:                Salt (DYNAMICS)  min= -1.04083408558608E-17
DEBUG_STATS_RL:                Salt (DYNAMICS)  max=  3.74515308081218E+01
DEBUG_STATS_RL:                Salt (DYNAMICS) mean=  1.88449800536972E+01
DEBUG_STATS_RL:                Salt (DYNAMICS) S.D.=  1.73004814242611E+01
DEBUG_STATS_RL:                  Gu (DYNAMICS)  min= -1.67713514358518E-01
DEBUG_STATS_RL:                  Gu (DYNAMICS)  max=  8.84546684367447E-02
DEBUG_STATS_RL:                  Gu (DYNAMICS) mean=  1.42616472360271E-03
DEBUG_STATS_RL:                  Gu (DYNAMICS) S.D.=  1.68845365498697E-02
DEBUG_STATS_RL:                  Gv (DYNAMICS)  min= -1.37797257576927E-01
DEBUG_STATS_RL:                  Gv (DYNAMICS)  max=  1.09005379916507E-01
DEBUG_STATS_RL:                  Gv (DYNAMICS) mean=  3.00635827256643E-03
DEBUG_STATS_RL:                  Gv (DYNAMICS) S.D.=  1.50502331057248E-02
DEBUG_STATS_RL:               GuNm1 (DYNAMICS)  min= -7.89390767846357E-06
DEBUG_STATS_RL:               GuNm1 (DYNAMICS)  max=  7.60099321204152E-06
DEBUG_STATS_RL:               GuNm1 (DYNAMICS) mean= -1.51569233026822E-08
DEBUG_STATS_RL:               GuNm1 (DYNAMICS) S.D.=  1.19892970053170E-06
DEBUG_STATS_RL:               GvNm1 (DYNAMICS)  min= -1.07239643268149E-05
DEBUG_STATS_RL:               GvNm1 (DYNAMICS)  max=  1.66648361365960E-05
DEBUG_STATS_RL:               GvNm1 (DYNAMICS) mean=  7.62338456996013E-07
DEBUG_STATS_RL:               GvNm1 (DYNAMICS) S.D.=  2.64900376111012E-06
DEBUG_STATS_RL:               GtNm1 (DYNAMICS)  min= -2.88952595887054E-06
DEBUG_STATS_RL:               GtNm1 (DYNAMICS)  max=  2.61006910463112E-06
DEBUG_STATS_RL:               GtNm1 (DYNAMICS) mean=  1.76302374455077E-09
DEBUG_STATS_RL:               GtNm1 (DYNAMICS) S.D.=  2.17289692795206E-07
DEBUG_STATS_RL:               GsNm1 (DYNAMICS)  min= -5.13102498253781E-07
DEBUG_STATS_RL:               GsNm1 (DYNAMICS)  max=  2.96244289564241E-07
DEBUG_STATS_RL:               GsNm1 (DYNAMICS) mean= -7.23437764494191E-10
DEBUG_STATS_RL:               GsNm1 (DYNAMICS) S.D.=  1.91474040582583E-08
DEBUG_STATS_RL:    cg2d_b (SOLVE_FOR_PRESSURE)  min= -2.20796269673963E+04
DEBUG_STATS_RL:    cg2d_b (SOLVE_FOR_PRESSURE)  max=  1.89387645995421E+04
DEBUG_STATS_RL:    cg2d_b (SOLVE_FOR_PRESSURE) mean=  2.05259330788451E+00
DEBUG_STATS_RL:    cg2d_b (SOLVE_FOR_PRESSURE) S.D.=  3.78540670555110E+03
 cg2d: Sum(rhs),rhsMax =   2.15209863589221E-01  1.45024901577954E+00
(PID.TID 0000.0001)  cg2d: iter=     1 ; resid.=  1.09405093517378E-01
(PID.TID 0000.0001)  cg2d: iter=     2 ; resid.=  5.81086271948284E-02
(PID.TID 0000.0001)  cg2d: iter=     3 ; resid.=  4.57702174680649E-02
(PID.TID 0000.0001)  cg2d: iter=     4 ; resid.=  4.53379465690393E-02
(PID.TID 0000.0001)  cg2d: iter=     5 ; resid.=  4.69444392770865E-02
(PID.TID 0000.0001)  cg2d: iter=     6 ; resid.=  4.18247180558928E-02
(PID.TID 0000.0001)  cg2d: iter=     7 ; resid.=  3.63304578122046E-02
(PID.TID 0000.0001)  cg2d: iter=     8 ; resid.=  2.83380219881540E-02
(PID.TID 0000.0001)  cg2d: iter=     9 ; resid.=  2.23116888173874E-02
(PID.TID 0000.0001)  cg2d: iter=    10 ; resid.=  1.85047282513094E-02
(PID.TID 0000.0001)  cg2d: iter=    11 ; resid.=  1.53493228695050E-02
(PID.TID 0000.0001)  cg2d: iter=    12 ; resid.=  1.32015903711869E-02
(PID.TID 0000.0001)  cg2d: iter=    13 ; resid.=  1.21259921112075E-02
(PID.TID 0000.0001)  cg2d: iter=    14 ; resid.=  9.96558583559695E-03
(PID.TID 0000.0001)  cg2d: iter=    15 ; resid.=  8.28434492885363E-03
(PID.TID 0000.0001)  cg2d: iter=    16 ; resid.=  6.50621606976809E-03
(PID.TID 0000.0001)  cg2d: iter=    17 ; resid.=  5.72188038282276E-03
(PID.TID 0000.0001)  cg2d: iter=    18 ; resid.=  5.19117875757614E-03
(PID.TID 0000.0001)  cg2d: iter=    19 ; resid.=  4.31947257788085E-03
(PID.TID 0000.0001)  cg2d: iter=    20 ; resid.=  3.57157105546521E-03
(PID.TID 0000.0001)  cg2d: iter=    21 ; resid.=  2.77881689553850E-03
(PID.TID 0000.0001)  cg2d: iter=    22 ; resid.=  2.19034740083153E-03
(PID.TID 0000.0001)  cg2d: iter=    23 ; resid.=  1.76106454914314E-03
(PID.TID 0000.0001)  cg2d: iter=    24 ; resid.=  1.44253509368396E-03
(PID.TID 0000.0001)  cg2d: iter=    25 ; resid.=  1.18257838151300E-03
(PID.TID 0000.0001)  cg2d: iter=    26 ; resid.=  9.96742707077371E-04
(PID.TID 0000.0001)  cg2d: iter=    27 ; resid.=  8.62172059229476E-04
(PID.TID 0000.0001)  cg2d: iter=    28 ; resid.=  7.48387617325709E-04
(PID.TID 0000.0001)  cg2d: iter=    29 ; resid.=  6.43202133358585E-04
(PID.TID 0000.0001)  cg2d: iter=    30 ; resid.=  5.13416471244667E-04
(PID.TID 0000.0001)  cg2d: iter=    31 ; resid.=  4.11383312530268E-04
(PID.TID 0000.0001)  cg2d: iter=    32 ; resid.=  3.29194128236090E-04
(PID.TID 0000.0001)  cg2d: iter=    33 ; resid.=  2.68291281156490E-04
(PID.TID 0000.0001)  cg2d: iter=    34 ; resid.=  2.15251168095408E-04
(PID.TID 0000.0001)  cg2d: iter=    35 ; resid.=  1.71728717178410E-04
(PID.TID 0000.0001)  cg2d: iter=    36 ; resid.=  1.46983636967084E-04
(PID.TID 0000.0001)  cg2d: iter=    37 ; resid.=  1.30839778742761E-04
(PID.TID 0000.0001)  cg2d: iter=    38 ; resid.=  1.22375114428057E-04
(PID.TID 0000.0001)  cg2d: iter=    39 ; resid.=  1.09491568826931E-04
(PID.TID 0000.0001)  cg2d: iter=    40 ; resid.=  9.58659539705532E-05
(PID.TID 0000.0001)  cg2d: iter=    41 ; resid.=  8.30175857720798E-05
(PID.TID 0000.0001)  cg2d: iter=    42 ; resid.=  6.95864122977324E-05
(PID.TID 0000.0001)  cg2d: iter=    43 ; resid.=  5.77161609561302E-05
(PID.TID 0000.0001)  cg2d: iter=    44 ; resid.=  4.53517801930409E-05
(PID.TID 0000.0001)  cg2d: iter=    45 ; resid.=  3.95789653734464E-05
(PID.TID 0000.0001)  cg2d: iter=    46 ; resid.=  3.34179114320519E-05
(PID.TID 0000.0001)  cg2d: iter=    47 ; resid.=  2.75385280175772E-05
(PID.TID 0000.0001)  cg2d: iter=    48 ; resid.=  2.08456049079908E-05
(PID.TID 0000.0001)  cg2d: iter=    49 ; resid.=  1.55738723604489E-05
(PID.TID 0000.0001)  cg2d: iter=    50 ; resid.=  1.23195764240617E-05
(PID.TID 0000.0001)  cg2d: iter=    51 ; resid.=  1.02051430530367E-05
(PID.TID 0000.0001)  cg2d: iter=    52 ; resid.=  8.36528458514914E-06
(PID.TID 0000.0001)  cg2d: iter=    53 ; resid.=  7.04220304913204E-06
(PID.TID 0000.0001)  cg2d: iter=    54 ; resid.=  6.39417814143777E-06
(PID.TID 0000.0001)  cg2d: iter=    55 ; resid.=  5.73771418555985E-06
(PID.TID 0000.0001)  cg2d: iter=    56 ; resid.=  4.96766318259010E-06
(PID.TID 0000.0001)  cg2d: iter=    57 ; resid.=  3.82787982980219E-06
(PID.TID 0000.0001)  cg2d: iter=    58 ; resid.=  2.92794304521682E-06
(PID.TID 0000.0001)  cg2d: iter=    59 ; resid.=  2.20415828095608E-06
(PID.TID 0000.0001)  cg2d: iter=    60 ; resid.=  1.78812419097338E-06
(PID.TID 0000.0001)  cg2d: iter=    61 ; resid.=  1.53011711498146E-06
(PID.TID 0000.0001)  cg2d: iter=    62 ; resid.=  1.29214342719216E-06
(PID.TID 0000.0001)  cg2d: iter=    63 ; resid.=  1.01756868188045E-06
(PID.TID 0000.0001)  cg2d: iter=    64 ; resid.=  7.38168367373127E-07
(PID.TID 0000.0001)  cg2d: iter=    65 ; resid.=  5.63022869273255E-07
(PID.TID 0000.0001)  cg2d: iter=    66 ; resid.=  4.76789239913254E-07
(PID.TID 0000.0001)  cg2d: iter=    67 ; resid.=  3.84175272887400E-07
(PID.TID 0000.0001)  cg2d: iter=    68 ; resid.=  3.10001374935950E-07
(PID.TID 0000.0001)  cg2d: iter=    69 ; resid.=  2.50103858470540E-07
(PID.TID 0000.0001)  cg2d: iter=    70 ; resid.=  2.06388210147620E-07
(PID.TID 0000.0001)  cg2d: iter=    71 ; resid.=  1.87211597535798E-07
(PID.TID 0000.0001)  cg2d: iter=    72 ; resid.=  1.59555734131572E-07
(PID.TID 0000.0001)  cg2d: iter=    73 ; resid.=  1.26881005328963E-07
(PID.TID 0000.0001)  cg2d: iter=    74 ; resid.=  9.97180744685485E-08
(PID.TID 0000.0001)  cg2d: iter=    75 ; resid.=  7.98741235163883E-08
(PID.TID 0000.0001)  cg2d: iter=    76 ; resid.=  7.16321185560611E-08
(PID.TID 0000.0001)  cg2d: iter=    77 ; resid.=  6.58865111708144E-08
(PID.TID 0000.0001)  cg2d: iter=    78 ; resid.=  5.75597191497102E-08
(PID.TID 0000.0001)  cg2d: iter=    79 ; resid.=  4.83301049089942E-08
(PID.TID 0000.0001)  cg2d: iter=    80 ; resid.=  3.71509422400339E-08
(PID.TID 0000.0001)  cg2d: iter=    81 ; resid.=  2.93916334172824E-08
(PID.TID 0000.0001)  cg2d: iter=    82 ; resid.=  2.38093640028296E-08
(PID.TID 0000.0001)  cg2d: iter=    83 ; resid.=  1.91170640232942E-08
(PID.TID 0000.0001)  cg2d: iter=    84 ; resid.=  1.43620777639698E-08
(PID.TID 0000.0001)  cg2d: iter=    85 ; resid.=  1.00323035084776E-08
(PID.TID 0000.0001)  cg2d: iter=    86 ; resid.=  7.26518051019102E-09
(PID.TID 0000.0001)  cg2d: iter=    87 ; resid.=  5.63007595745868E-09
(PID.TID 0000.0001)  cg2d: iter=    88 ; resid.=  4.42067321226525E-09
(PID.TID 0000.0001)  cg2d: iter=    89 ; resid.=  3.65513035171576E-09
(PID.TID 0000.0001)  cg2d: iter=    90 ; resid.=  3.01128529728593E-09
(PID.TID 0000.0001)  cg2d: iter=    91 ; resid.=  2.52937291576277E-09
(PID.TID 0000.0001)  cg2d: iter=    92 ; resid.=  2.17930860641936E-09
(PID.TID 0000.0001)  cg2d: iter=    93 ; resid.=  1.66786934869925E-09
(PID.TID 0000.0001)  cg2d: iter=    94 ; resid.=  1.15448509906227E-09
(PID.TID 0000.0001)  cg2d: iter=    95 ; resid.=  8.10474987310357E-10
(PID.TID 0000.0001)  cg2d: iter=    96 ; resid.=  6.38472674398688E-10
(PID.TID 0000.0001)  cg2d: iter=    97 ; resid.=  5.14223330757966E-10
(PID.TID 0000.0001)  cg2d: iter=    98 ; resid.=  4.14453208235299E-10
(PID.TID 0000.0001)  cg2d: iter=    99 ; resid.=  3.35549697813864E-10
(PID.TID 0000.0001)  cg2d: iter=   100 ; resid.=  2.88637297479176E-10
(PID.TID 0000.0001)  cg2d: iter=   101 ; resid.=  2.62942064584888E-10
(PID.TID 0000.0001)  cg2d: iter=   102 ; resid.=  2.23128793941606E-10
(PID.TID 0000.0001)  cg2d: iter=   103 ; resid.=  1.71519937513392E-10
(PID.TID 0000.0001)  cg2d: iter=   104 ; resid.=  1.45166786227651E-10
(PID.TID 0000.0001)  cg2d: iter=   105 ; resid.=  1.21807789234832E-10
(PID.TID 0000.0001)  cg2d: iter=   106 ; resid.=  9.65907503853086E-11
(PID.TID 0000.0001)  cg2d: iter=   107 ; resid.=  7.54740659343069E-11
(PID.TID 0000.0001)  cg2d: iter=   108 ; resid.=  5.54263296486963E-11
(PID.TID 0000.0001)  cg2d: iter=   109 ; resid.=  4.30055426405037E-11
(PID.TID 0000.0001)  cg2d: iter=   110 ; resid.=  3.18832148781668E-11
(PID.TID 0000.0001)  cg2d: iter=   111 ; resid.=  2.38882636701681E-11
(PID.TID 0000.0001)  cg2d: iter=   112 ; resid.=  1.97735219787889E-11
(PID.TID 0000.0001)  cg2d: iter=   113 ; resid.=  1.67598594036710E-11
(PID.TID 0000.0001)  cg2d: iter=   114 ; resid.=  1.32240784219247E-11
(PID.TID 0000.0001)  cg2d: iter=   115 ; resid.=  1.01424407898115E-11
(PID.TID 0000.0001)  cg2d: iter=   116 ; resid.=  8.25772852998859E-12
(PID.TID 0000.0001)  cg2d: iter=   117 ; resid.=  6.31554323499297E-12
(PID.TID 0000.0001)  cg2d: iter=   118 ; resid.=  4.63903395436000E-12
(PID.TID 0000.0001)  cg2d: iter=   119 ; resid.=  3.50438711382824E-12
(PID.TID 0000.0001)  cg2d: iter=   120 ; resid.=  2.69139710832839E-12
(PID.TID 0000.0001)  cg2d: iter=   121 ; resid.=  2.06280212454217E-12
(PID.TID 0000.0001)  cg2d: iter=   122 ; resid.=  1.55915773550778E-12
(PID.TID 0000.0001)  cg2d: iter=   123 ; resid.=  1.15261168284756E-12
(PID.TID 0000.0001)  cg2d: iter=   124 ; resid.=  8.22705745710940E-13
(PID.TID 0000.0001)  cg2d: iter=   125 ; resid.=  6.30519617786626E-13
(PID.TID 0000.0001)  cg2d: iter=   126 ; resid.=  4.92105177247445E-13
(PID.TID 0000.0001)  cg2d: iter=   127 ; resid.=  3.50993220167333E-13
(PID.TID 0000.0001)  cg2d: iter=   128 ; resid.=  2.28006227054472E-13
(PID.TID 0000.0001)  cg2d: iter=   129 ; resid.=  1.51554004359709E-13
(PID.TID 0000.0001)  cg2d: iter=   130 ; resid.=  1.14498094052372E-13
(PID.TID 0000.0001)  cg2d: iter=   131 ; resid.=  9.40139806976051E-14
DEBUG_STATS_RL:    cg2d_x (SOLVE_FOR_PRESSURE)  min= -1.66044795650997E+01
DEBUG_STATS_RL:    cg2d_x (SOLVE_FOR_PRESSURE)  max=  8.85215309370371E+00
DEBUG_STATS_RL:    cg2d_x (SOLVE_FOR_PRESSURE) mean= -1.63076333983285E+00
DEBUG_STATS_RL:    cg2d_x (SOLVE_FOR_PRESSURE) S.D.=  6.30459581385690E+00
(PID.TID 0000.0001)      cg2d_init_res =   4.15067277972944E-01
(PID.TID 0000.0001)      cg2d_iters(min,last) =      -1     131
(PID.TID 0000.0001)      cg2d_last_res =   9.40139806976051E-14
(PID.TID 0000.0001) // =======================================================
(PID.TID 0000.0001) // Begin MONITOR dynamic field statistics
(PID.TID 0000.0001) // =======================================================
(PID.TID 0000.0001) %MON time_tsnumber                =                    29
(PID.TID 0000.0001) %MON time_secondsf                =   2.5056000000000E+06
(PID.TID 0000.0001) %MON dynstat_eta_max              =   9.0236015226331E-01
(PID.TID 0000.0001) %MON dynstat_eta_min              =  -1.6926074989909E+00
(PID.TID 0000.0001) %MON dynstat_eta_mean             =  -2.1416266036092E-03
(PID.TID 0000.0001) %MON dynstat_eta_sd               =   5.6103696524660E-01
(PID.TID 0000.0001) %MON dynstat_eta_del2             =   2.1286901920402E-03
(PID.TID 0000.0001) %MON dynstat_uvel_max             =   8.7256609576941E-02
(PID.TID 0000.0001) %MON dynstat_uvel_min             =  -1.6613028971838E-01
(PID.TID 0000.0001) %MON dynstat_uvel_mean            =   1.0539656334101E-03
(PID.TID 0000.0001) %MON dynstat_uvel_sd              =   1.0401850103086E-02
(PID.TID 0000.0001) %MON dynstat_uvel_del2            =   7.2775312736624E-05
(PID.TID 0000.0001) %MON dynstat_vvel_max             =   1.1262101991402E-01
(PID.TID 0000.0001) %MON dynstat_vvel_min             =  -1.3094451050022E-01
(PID.TID 0000.0001) %MON dynstat_vvel_mean            =   2.5167268220007E-05
(PID.TID 0000.0001) %MON dynstat_vvel_sd              =   8.3921190746762E-03
(PID.TID 0000.0001) %MON dynstat_vvel_del2            =   7.2318582981990E-05
(PID.TID 0000.0001) %MON dynstat_wvel_max             =   1.0814038175731E-04
(PID.TID 0000.0001) %MON dynstat_wvel_min             =  -1.2066048843036E-04
(PID.TID 0000.0001) %MON dynstat_wvel_mean            =  -6.7824480965842E-23
(PID.TID 0000.0001) %MON dynstat_wvel_sd              =   1.2724239126853E-05
(PID.TID 0000.0001) %MON dynstat_wvel_del2            =   1.5208996596296E-07
(PID.TID 0000.0001) %MON dynstat_theta_max            =   2.9956311870117E+01
(PID.TID 0000.0001) %MON dynstat_theta_min            =  -2.0095096533111E+00
(PID.TID 0000.0001) %MON dynstat_theta_mean           =   3.6211013291548E+00
(PID.TID 0000.0001) %MON dynstat_theta_sd             =   4.4171676020128E+00
(PID.TID 0000.0001) %MON dynstat_theta_del2           =   4.8380969464312E-03
(PID.TID 0000.0001) %MON dynstat_salt_max             =   3.7451530808122E+01
(PID.TID 0000.0001) %MON dynstat_salt_min             =   2.9811044971413E+01
(PID.TID 0000.0001) %MON dynstat_salt_mean            =   3.4717980965364E+01
(PID.TID 0000.0001) %MON dynstat_salt_sd              =   2.9624423883063E-01
(PID.TID 0000.0001) %MON dynstat_salt_del2            =   9.9949224427561E-04
(PID.TID 0000.0001) %MON dynstat_sst_max              =   2.9956311870117E+01
(PID.TID 0000.0001) %MON dynstat_sst_min              =  -2.0095096533111E+00
(PID.TID 0000.0001) %MON dynstat_sst_mean             =   1.8729903396436E+01
(PID.TID 0000.0001) %MON dynstat_sst_sd               =   9.0568795557091E+00
(PID.TID 0000.0001) %MON dynstat_sst_del2             =   2.6604878490969E-02
(PID.TID 0000.0001) %MON dynstat_sss_max              =   3.7433064927791E+01
(PID.TID 0000.0001) %MON dynstat_sss_min              =   2.9811044971413E+01
(PID.TID 0000.0001) %MON dynstat_sss_mean             =   3.4847062544106E+01
(PID.TID 0000.0001) %MON dynstat_sss_sd               =   9.7493169200003E-01
(PID.TID 0000.0001) %MON dynstat_sss_del2             =   7.8744714896521E-03
(PID.TID 0000.0001) %MON forcing_qnet_max             =   3.9846548970540E+02
(PID.TID 0000.0001) %MON forcing_qnet_min             =  -1.7690579630534E+02
(PID.TID 0000.0001) %MON forcing_qnet_mean            =  -1.5408706824800E+01
(PID.TID 0000.0001) %MON forcing_qnet_sd              =   9.6156770907790E+01
(PID.TID 0000.0001) %MON forcing_qnet_del2            =   9.7855893917677E-01
(PID.TID 0000.0001) %MON forcing_qsw_max              =   0.0000000000000E+00
(PID.TID 0000.0001) %MON forcing_qsw_min              =   0.0000000000000E+00
(PID.TID 0000.0001) %MON forcing_qsw_mean             =   0.0000000000000E+00
(PID.TID 0000.0001) %MON forcing_qsw_sd               =   0.0000000000000E+00
(PID.TID 0000.0001) %MON forcing_qsw_del2             =   0.0000000000000E+00
(PID.TID 0000.0001) %MON forcing_empmr_max            =   7.8091072452935E-05
(PID.TID 0000.0001) %MON forcing_empmr_min            =  -7.7191331608143E-05
(PID.TID 0000.0001) %MON forcing_empmr_mean           =   9.3180822649008E-07
(PID.TID 0000.0001) %MON forcing_empmr_sd             =   2.8244821350011E-05
(PID.TID 0000.0001) %MON forcing_empmr_del2           =   3.5593995327088E-07
(PID.TID 0000.0001) %MON forcing_fu_max               =   2.8105383813381E-01
(PID.TID 0000.0001) %MON forcing_fu_min               =  -1.8751364648342E-01
(PID.TID 0000.0001) %MON forcing_fu_mean              =   1.6707637953663E-02
(PID.TID 0000.0001) %MON forcing_fu_sd                =   8.9991600126903E-02
(PID.TID 0000.0001) %MON forcing_fu_del2              =   6.6831144155872E-04
(PID.TID 0000.0001) %MON forcing_fv_max               =   1.9141846299171E-01
(PID.TID 0000.0001) %MON forcing_fv_min               =  -1.6525000333786E-01
(PID.TID 0000.0001) %MON forcing_fv_mean              =  -6.1072895268024E-03
(PID.TID 0000.0001) %MON forcing_fv_sd                =   4.5167602989543E-02
(PID.TID 0000.0001) %MON forcing_fv_del2              =   4.6381451541736E-04
(PID.TID 0000.0001) %MON trAdv_CFL_u_max              =   3.3082116571618E-02
(PID.TID 0000.0001) %MON trAdv_CFL_v_max              =   2.6262905615094E-02
(PID.TID 0000.0001) %MON trAdv_CFL_w_max              =   4.5768342272311E-02
(PID.TID 0000.0001) %MON advcfl_uvel_max              =   3.3264550186821E-02
(PID.TID 0000.0001) %MON advcfl_vvel_max              =   2.5440418292730E-02
(PID.TID 0000.0001) %MON advcfl_wvel_max              =   3.7280618989703E-02
(PID.TID 0000.0001) %MON advcfl_W_hf_max              =   4.5269323058925E-02
(PID.TID 0000.0001) %MON pe_b_mean                    =   4.0278239679383E-04
(PID.TID 0000.0001) %MON ke_max                       =   1.3300747437229E-02
(PID.TID 0000.0001) %MON ke_mean                      =   8.1279231981031E-05
(PID.TID 0000.0001) %MON ke_vol                       =   1.3226782436723E+18
(PID.TID 0000.0001) %MON vort_r_min                   =  -2.7043028158733E-07
(PID.TID 0000.0001) %MON vort_r_max                   =   3.8634816412116E-07
(PID.TID 0000.0001) %MON vort_a_mean                  =  -2.5274807060835E-05
(PID.TID 0000.0001) %MON vort_a_sd                    =   7.3604496287996E-05
(PID.TID 0000.0001) %MON vort_p_mean                  =  -3.1845655375344E-05
(PID.TID 0000.0001) %MON vort_p_sd                    =   1.3162543315595E-04
(PID.TID 0000.0001) %MON surfExpan_theta_mean         =   7.1509639702051E-08
(PID.TID 0000.0001) %MON surfExpan_salt_mean          =   4.5410793660612E-08
(PID.TID 0000.0001) // =======================================================
(PID.TID 0000.0001) // End MONITOR dynamic field statistics
(PID.TID 0000.0001) // =======================================================
 EXTERNAL_FIELDS_LOAD,        29 : iP,iLd,i0,i1=    1    2    1    2 ; Wght=  0.5333333333  0.4666666667
 EXTERNAL_FIELDS_LOAD: (fu0,1),fu,fv= -3.5633E-02 -1.4435E-02 -2.5740E-02 -3.8767E-02
 EXTERNAL_FIELDS_LOAD: SST,SSS,Q,E-P=  2.6296E-01  3.4578E+01  2.5397E+02  1.0116E-05
DEBUG_STATS_RL:          Uvel (THERMODYNAMICS)  min= -1.66130289718382E-01
DEBUG_STATS_RL:          Uvel (THERMODYNAMICS)  max=  8.72566095769414E-02
DEBUG_STATS_RL:          Uvel (THERMODYNAMICS) mean=  1.52413188361553E-03
DEBUG_STATS_RL:          Uvel (THERMODYNAMICS) S.D.=  1.65475218062989E-02
DEBUG_STATS_RL:          Vvel (THERMODYNAMICS)  min= -1.30944510500217E-01
DEBUG_STATS_RL:          Vvel (THERMODYNAMICS)  max=  1.12621019914019E-01
DEBUG_STATS_RL:          Vvel (THERMODYNAMICS) mean=  8.27039583512129E-04
DEBUG_STATS_RL:          Vvel (THERMODYNAMICS) S.D.=  1.34781799481255E-02
DEBUG_STATS_RL:          Wvel (THERMODYNAMICS)  min= -1.20660488430361E-04
DEBUG_STATS_RL:          Wvel (THERMODYNAMICS)  max=  1.08140381757307E-04
DEBUG_STATS_RL:          Wvel (THERMODYNAMICS) mean=  8.65197189034786E-08
DEBUG_STATS_RL:          Wvel (THERMODYNAMICS) S.D.=  1.13184824803280E-05
DEBUG_STATS_RL:         Theta (THERMODYNAMICS)  min= -2.00873150289317E+00
DEBUG_STATS_RL:         Theta (THERMODYNAMICS)  max=  2.99735594077684E+01
DEBUG_STATS_RL:         Theta (THERMODYNAMICS) mean=  3.20911588920944E+00
DEBUG_STATS_RL:         Theta (THERMODYNAMICS) S.D.=  5.85886247873397E+00
DEBUG_STATS_RL:          Salt (THERMODYNAMICS)  min= -1.04083408558608E-17
DEBUG_STATS_RL:          Salt (THERMODYNAMICS)  max=  3.74523039311982E+01
DEBUG_STATS_RL:          Salt (THERMODYNAMICS) mean=  1.88449500650836E+01
DEBUG_STATS_RL:          Salt (THERMODYNAMICS) S.D.=  1.73004545310432E+01
DEBUG_STATS_RL:         GtNm1 (THERMODYNAMICS)  min= -2.70810574806504E-06
DEBUG_STATS_RL:         GtNm1 (THERMODYNAMICS)  max=  2.57386266584175E-06
DEBUG_STATS_RL:         GtNm1 (THERMODYNAMICS) mean=  3.20910018696870E-09
DEBUG_STATS_RL:         GtNm1 (THERMODYNAMICS) S.D.=  2.14924694523750E-07
DEBUG_STATS_RL:         GsNm1 (THERMODYNAMICS)  min= -5.26058399144591E-07
DEBUG_STATS_RL:         GsNm1 (THERMODYNAMICS)  max=  3.57034223378107E-07
DEBUG_STATS_RL:         GsNm1 (THERMODYNAMICS) mean= -7.07399910527273E-10
DEBUG_STATS_RL:         GsNm1 (THERMODYNAMICS) S.D.=  1.90337377133594E-08
DEBUG_STATS_RL:                EtaN (DYNAMICS)  min= -1.69260749899085E+00
DEBUG_STATS_RL:                EtaN (DYNAMICS)  max=  9.02360152263311E-01
DEBUG_STATS_RL:                EtaN (DYNAMICS) mean= -1.66234795089995E-01
DEBUG_STATS_RL:                EtaN (DYNAMICS) S.D.=  6.42670317416607E-01
DEBUG_STATS_RL:                Uvel (DYNAMICS)  min= -1.66130289718382E-01
DEBUG_STATS_RL:                Uvel (DYNAMICS)  max=  8.72566095769414E-02
DEBUG_STATS_RL:                Uvel (DYNAMICS) mean=  1.52413188361553E-03
DEBUG_STATS_RL:                Uvel (DYNAMICS) S.D.=  1.65475218062989E-02
DEBUG_STATS_RL:                Vvel (DYNAMICS)  min= -1.30944510500217E-01
DEBUG_STATS_RL:                Vvel (DYNAMICS)  max=  1.12621019914019E-01
DEBUG_STATS_RL:                Vvel (DYNAMICS) mean=  8.27039583512129E-04
DEBUG_STATS_RL:                Vvel (DYNAMICS) S.D.=  1.34781799481255E-02
DEBUG_STATS_RL:                Wvel (DYNAMICS)  min= -1.20660488430361E-04
DEBUG_STATS_RL:                Wvel (DYNAMICS)  max=  1.08140381757307E-04
DEBUG_STATS_RL:                Wvel (DYNAMICS) mean=  8.65197189034786E-08
DEBUG_STATS_RL:                Wvel (DYNAMICS) S.D.=  1.13184824803280E-05
DEBUG_STATS_RL:               Theta (DYNAMICS)  min= -2.00873150289317E+00
DEBUG_STATS_RL:               Theta (DYNAMICS)  max=  2.99735594077684E+01
DEBUG_STATS_RL:               Theta (DYNAMICS) mean=  3.20911588920944E+00
DEBUG_STATS_RL:               Theta (DYNAMICS) S.D.=  5.85886247873397E+00
DEBUG_STATS_RL:                Salt (DYNAMICS)  min= -1.04083408558608E-17
DEBUG_STATS_RL:                Salt (DYNAMICS)  max=  3.74523039311982E+01
DEBUG_STATS_RL:                Salt (DYNAMICS) mean=  1.88449500650836E+01
DEBUG_STATS_RL:                Salt (DYNAMICS) S.D.=  1.73004545310432E+01
DEBUG_STATS_RL:                  Gu (DYNAMICS)  min= -1.68119457656281E-01
DEBUG_STATS_RL:                  Gu (DYNAMICS)  max=  8.68746271040104E-02
DEBUG_STATS_RL:                  Gu (DYNAMICS) mean=  1.23877825584250E-03
DEBUG_STATS_RL:                  Gu (DYNAMICS) S.D.=  1.68224834659368E-02
DEBUG_STATS_RL:                  Gv (DYNAMICS)  min= -1.35422023581730E-01
DEBUG_STATS_RL:                  Gv (DYNAMICS)  max=  1.06045216947447E-01
DEBUG_STATS_RL:                  Gv (DYNAMICS) mean=  2.76037392326981E-03
DEBUG_STATS_RL:                  Gv (DYNAMICS) S.D.=  1.44544120911472E-02
DEBUG_STATS_RL:               GuNm1 (DYNAMICS)  min= -7.89325059257240E-06
DEBUG_STATS_RL:               GuNm1 (DYNAMICS)  max=  7.51830481085809E-06
DEBUG_STATS_RL:               GuNm1 (DYNAMICS) mean= -1.58582857836788E-08
DEBUG_STATS_RL:               GuNm1 (DYNAMICS) S.D.=  1.19928767535508E-06
DEBUG_STATS_RL:               GvNm1 (DYNAMICS)  min= -1.07664995989369E-05
DEBUG_STATS_RL:               GvNm1 (DYNAMICS)  max=  1.66194330154046E-05
DEBUG_STATS_RL:               GvNm1 (DYNAMICS) mean=  7.61000171058593E-07
DEBUG_STATS_RL:               GvNm1 (DYNAMICS) S.D.=  2.65055766080472E-06
DEBUG_STATS_RL:               GtNm1 (DYNAMICS)  min= -2.70810574806504E-06
DEBUG_STATS_RL:               GtNm1 (DYNAMICS)  max=  2.57386266584175E-06
DEBUG_STATS_RL:               GtNm1 (DYNAMICS) mean=  3.20910018696870E-09
DEBUG_STATS_RL:               GtNm1 (DYNAMICS) S.D.=  2.14924694523750E-07
DEBUG_STATS_RL:               GsNm1 (DYNAMICS)  min= -5.26058399144591E-07
DEBUG_STATS_RL:               GsNm1 (DYNAMICS)  max=  3.57034223378107E-07
DEBUG_STATS_RL:               GsNm1 (DYNAMICS) mean= -7.07399910527273E-10
DEBUG_STATS_RL:               GsNm1 (DYNAMICS) S.D.=  1.90337377133594E-08
DEBUG_STATS_RL:    cg2d_b (SOLVE_FOR_PRESSURE)  min= -2.16940152645395E+04
DEBUG_STATS_RL:    cg2d_b (SOLVE_FOR_PRESSURE)  max=  1.89883383181171E+04
DEBUG_STATS_RL:    cg2d_b (SOLVE_FOR_PRESSURE) mean=  2.12719986893488E+00
DEBUG_STATS_RL:    cg2d_b (SOLVE_FOR_PRESSURE) S.D.=  3.79451702456346E+03
 cg2d: Sum(rhs),rhsMax =   2.26996599593592E-01  1.42492100668921E+00
(PID.TID 0000.0001)  cg2d: iter=     1 ; resid.=  1.07937330808142E-01
(PID.TID 0000.0001)  cg2d: iter=     2 ; resid.=  5.88457401197137E-02
(PID.TID 0000.0001)  cg2d: iter=     3 ; resid.=  4.83154493536283E-02
(PID.TID 0000.0001)  cg2d: iter=     4 ; resid.=  4.89034977746599E-02
(PID.TID 0000.0001)  cg2d: iter=     5 ; resid.=  5.04287790422079E-02
(PID.TID 0000.0001)  cg2d: iter=     6 ; resid.=  4.37257313612711E-02
(PID.TID 0000.0001)  cg2d: iter=     7 ; resid.=  3.74328397574544E-02
(PID.TID 0000.0001)  cg2d: iter=     8 ; resid.=  2.89995619220083E-02
(PID.TID 0000.0001)  cg2d: iter=     9 ; resid.=  2.28785559654062E-02
(PID.TID 0000.0001)  cg2d: iter=    10 ; resid.=  1.92076815716474E-02
(PID.TID 0000.0001)  cg2d: iter=    11 ; resid.=  1.62820674430977E-02
(PID.TID 0000.0001)  cg2d: iter=    12 ; resid.=  1.44001918974027E-02
(PID.TID 0000.0001)  cg2d: iter=    13 ; resid.=  1.34035071814750E-02
(PID.TID 0000.0001)  cg2d: iter=    14 ; resid.=  1.09919641115034E-02
(PID.TID 0000.0001)  cg2d: iter=    15 ; resid.=  9.00538198207417E-03
(PID.TID 0000.0001)  cg2d: iter=    16 ; resid.=  7.11399917742923E-03
(PID.TID 0000.0001)  cg2d: iter=    17 ; resid.=  6.31046699094255E-03
(PID.TID 0000.0001)  cg2d: iter=    18 ; resid.=  5.58370822468375E-03
(PID.TID 0000.0001)  cg2d: iter=    19 ; resid.=  4.48158901051026E-03
(PID.TID 0000.0001)  cg2d: iter=    20 ; resid.=  3.66243140411338E-03
(PID.TID 0000.0001)  cg2d: iter=    21 ; resid.=  2.82974846836389E-03
(PID.TID 0000.0001)  cg2d: iter=    22 ; resid.=  2.21480211965421E-03
(PID.TID 0000.0001)  cg2d: iter=    23 ; resid.=  1.76417817551682E-03
(PID.TID 0000.0001)  cg2d: iter=    24 ; resid.=  1.42765751322118E-03
(PID.TID 0000.0001)  cg2d: iter=    25 ; resid.=  1.17090739003689E-03
(PID.TID 0000.0001)  cg2d: iter=    26 ; resid.=  1.01140161490774E-03
(PID.TID 0000.0001)  cg2d: iter=    27 ; resid.=  9.04034017302941E-04
(PID.TID 0000.0001)  cg2d: iter=    28 ; resid.=  7.90791610287871E-04
(PID.TID 0000.0001)  cg2d: iter=    29 ; resid.=  6.75339836757531E-04
(PID.TID 0000.0001)  cg2d: iter=    30 ; resid.=  5.32894680794827E-04
(PID.TID 0000.0001)  cg2d: iter=    31 ; resid.=  4.25944006056718E-04
(PID.TID 0000.0001)  cg2d: iter=    32 ; resid.=  3.36289114303066E-04
(PID.TID 0000.0001)  cg2d: iter=    33 ; resid.=  2.74161578943345E-04
(PID.TID 0000.0001)  cg2d: iter=    34 ; resid.=  2.21570779337907E-04
(PID.TID 0000.0001)  cg2d: iter=    35 ; resid.=  1.81030998241096E-04
(PID.TID 0000.0001)  cg2d: iter=    36 ; resid.=  1.59048302232430E-04
(PID.TID 0000.0001)  cg2d: iter=    37 ; resid.=  1.43155683061174E-04
(PID.TID 0000.0001)  cg2d: iter=    38 ; resid.=  1.33861626508135E-04
(PID.TID 0000.0001)  cg2d: iter=    39 ; resid.=  1.17167926317432E-04
(PID.TID 0000.0001)  cg2d: iter=    40 ; resid.=  1.01258591698965E-04
(PID.TID 0000.0001)  cg2d: iter=    41 ; resid.=  8.68972887461907E-05
(PID.TID 0000.0001)  cg2d: iter=    42 ; resid.=  7.22480469901112E-05
(PID.TID 0000.0001)  cg2d: iter=    43 ; resid.=  5.98674968820266E-05
(PID.TID 0000.0001)  cg2d: iter=    44 ; resid.=  4.79642319475530E-05
(PID.TID 0000.0001)  cg2d: iter=    45 ; resid.=  4.24680060381183E-05
(PID.TID 0000.0001)  cg2d: iter=    46 ; resid.=  3.58980838463782E-05
(PID.TID 0000.0001)  cg2d: iter=    47 ; resid.=  2.91126396637828E-05
(PID.TID 0000.0001)  cg2d: iter=    48 ; resid.=  2.16732693113005E-05
(PID.TID 0000.0001)  cg2d: iter=    49 ; resid.=  1.58089752213125E-05
(PID.TID 0000.0001)  cg2d: iter=    50 ; resid.=  1.22359127609040E-05
(PID.TID 0000.0001)  cg2d: iter=    51 ; resid.=  9.99223970989040E-06
(PID.TID 0000.0001)  cg2d: iter=    52 ; resid.=  8.23814262341492E-06
(PID.TID 0000.0001)  cg2d: iter=    53 ; resid.=  7.04575758430796E-06
(PID.TID 0000.0001)  cg2d: iter=    54 ; resid.=  6.24475243814000E-06
(PID.TID 0000.0001)  cg2d: iter=    55 ; resid.=  5.38317962893192E-06
(PID.TID 0000.0001)  cg2d: iter=    56 ; resid.=  4.58395435134813E-06
(PID.TID 0000.0001)  cg2d: iter=    57 ; resid.=  3.54520381206704E-06
(PID.TID 0000.0001)  cg2d: iter=    58 ; resid.=  2.74419430247963E-06
(PID.TID 0000.0001)  cg2d: iter=    59 ; resid.=  2.09984946408510E-06
(PID.TID 0000.0001)  cg2d: iter=    60 ; resid.=  1.70836763743411E-06
(PID.TID 0000.0001)  cg2d: iter=    61 ; resid.=  1.48001318099704E-06
(PID.TID 0000.0001)  cg2d: iter=    62 ; resid.=  1.29390719449234E-06
(PID.TID 0000.0001)  cg2d: iter=    63 ; resid.=  1.01637853786419E-06
(PID.TID 0000.0001)  cg2d: iter=    64 ; resid.=  7.27669024710096E-07
(PID.TID 0000.0001)  cg2d: iter=    65 ; resid.=  5.54311598501450E-07
(PID.TID 0000.0001)  cg2d: iter=    66 ; resid.=  4.68018970978814E-07
(PID.TID 0000.0001)  cg2d: iter=    67 ; resid.=  3.73940923800033E-07
(PID.TID 0000.0001)  cg2d: iter=    68 ; resid.=  2.98611884116341E-07
(PID.TID 0000.0001)  cg2d: iter=    69 ; resid.=  2.34361367097802E-07
(PID.TID 0000.0001)  cg2d: iter=    70 ; resid.=  1.86238492033602E-07
(PID.TID 0000.0001)  cg2d: iter=    71 ; resid.=  1.63181243235919E-07
(PID.TID 0000.0001)  cg2d: iter=    72 ; resid.=  1.36710896689936E-07
(PID.TID 0000.0001)  cg2d: iter=    73 ; resid.=  1.06704223404103E-07
(PID.TID 0000.0001)  cg2d: iter=    74 ; resid.=  8.31417832972348E-08
(PID.TID 0000.0001)  cg2d: iter=    75 ; resid.=  6.62988019168650E-08
(PID.TID 0000.0001)  cg2d: iter=    76 ; resid.=  5.97008358506952E-08
(PID.TID 0000.0001)  cg2d: iter=    77 ; resid.=  5.54259730731998E-08
(PID.TID 0000.0001)  cg2d: iter=    78 ; resid.=  4.97144140714528E-08
(PID.TID 0000.0001)  cg2d: iter=    79 ; resid.=  4.35540323005473E-08
(PID.TID 0000.0001)  cg2d: iter=    80 ; resid.=  3.50962892631543E-08
(PID.TID 0000.0001)  cg2d: iter=    81 ; resid.=  2.79877591292952E-08
(PID.TID 0000.0001)  cg2d: iter=    82 ; resid.=  2.19045326664096E-08
(PID.TID 0000.0001)  cg2d: iter=    83 ; resid.=  1.70924505059819E-08
(PID.TID 0000.0001)  cg2d: iter=    84 ; resid.=  1.29435690065792E-08
(PID.TID 0000.0001)  cg2d: iter=    85 ; resid.=  9.35240792178621E-09
(PID.TID 0000.0001)  cg2d: iter=    86 ; resid.=  7.14458180400919E-09
(PID.TID 0000.0001)  cg2d: iter=    87 ; resid.=  5.71127688449766E-09
(PID.TID 0000.0001)  cg2d: iter=    88 ; resid.=  4.47591787075447E-09
(PID.TID 0000.0001)  cg2d: iter=    89 ; resid.=  3.73304774731076E-09
(PID.TID 0000.0001)  cg2d: iter=    90 ; resid.=  3.07792901023084E-09
(PID.TID 0000.0001)  cg2d: iter=    91 ; resid.=  2.53559271216874E-09
(PID.TID 0000.0001)  cg2d: iter=    92 ; resid.=  2.09575749755298E-09
(PID.TID 0000.0001)  cg2d: iter=    93 ; resid.=  1.57198208704454E-09
(PID.TID 0000.0001)  cg2d: iter=    94 ; resid.=  1.07937900752286E-09
(PID.TID 0000.0001)  cg2d: iter=    95 ; resid.=  7.62625957860562E-10
(PID.TID 0000.0001)  cg2d: iter=    96 ; resid.=  5.90719637053019E-10
(PID.TID 0000.0001)  cg2d: iter=    97 ; resid.=  4.59429270127466E-10
(PID.TID 0000.0001)  cg2d: iter=    98 ; resid.=  3.51136173890681E-10
(PID.TID 0000.0001)  cg2d: iter=    99 ; resid.=  2.69532828459824E-10
(PID.TID 0000.0001)  cg2d: iter=   100 ; resid.=  2.25679364439390E-10
(PID.TID 0000.0001)  cg2d: iter=   101 ; resid.=  2.09170726288541E-10
(PID.TID 0000.0001)  cg2d: iter=   102 ; resid.=  1.85261368987187E-10
(PID.TID 0000.0001)  cg2d: iter=   103 ; resid.=  1.47419665292597E-10
(PID.TID 0000.0001)  cg2d: iter=   104 ; resid.=  1.25874960780142E-10
(PID.TID 0000.0001)  cg2d: iter=   105 ; resid.=  1.04575707618795E-10
(PID.TID 0000.0001)  cg2d: iter=   106 ; resid.=  8.15516926163728E-11
(PID.TID 0000.0001)  cg2d: iter=   107 ; resid.=  6.36875091909041E-11
(PID.TID 0000.0001)  cg2d: iter=   108 ; resid.=  4.77626190161467E-11
(PID.TID 0000.0001)  cg2d: iter=   109 ; resid.=  3.82336003357926E-11
(PID.TID 0000.0001)  cg2d: iter=   110 ; resid.=  2.95263430209826E-11
(PID.TID 0000.0001)  cg2d: iter=   111 ; resid.=  2.26327410767644E-11
(PID.TID 0000.0001)  cg2d: iter=   112 ; resid.=  1.93789096379676E-11
(PID.TID 0000.0001)  cg2d: iter=   113 ; resid.=  1.69344990642974E-11
(PID.TID 0000.0001)  cg2d: iter=   114 ; resid.=  1.34603082678665E-11
(PID.TID 0000.0001)  cg2d: iter=   115 ; resid.=  1.04614290948928E-11
(PID.TID 0000.0001)  cg2d: iter=   116 ; resid.=  8.55403900483389E-12
(PID.TID 0000.0001)  cg2d: iter=   117 ; resid.=  6.45999729413280E-12
(PID.TID 0000.0001)  cg2d: iter=   118 ; resid.=  4.54568133649198E-12
(PID.TID 0000.0001)  cg2d: iter=   119 ; resid.=  3.31808925913534E-12
(PID.TID 0000.0001)  cg2d: iter=   120 ; resid.=  2.43492210082407E-12
(PID.TID 0000.0001)  cg2d: iter=   121 ; resid.=  1.80744929296166E-12
(PID.TID 0000.0001)  cg2d: iter=   122 ; resid.=  1.35573869212855E-12
(PID.TID 0000.0001)  cg2d: iter=   123 ; resid.=  9.90298566176212E-13
(PID.TID 0000.0001)  cg2d: iter=   124 ; resid.=  7.08905756534858E-13
(PID.TID 0000.0001)  cg2d: iter=   125 ; resid.=  5.75183605385240E-13
(PID.TID 0000.0001)  cg2d: iter=   126 ; resid.=  4.76736969767555E-13
(PID.TID 0000.0001)  cg2d: iter=   127 ; resid.=  3.67051835599176E-13
(PID.TID 0000.0001)  cg2d: iter=   128 ; resid.=  2.55116506010781E-13
(PID.TID 0000.0001)  cg2d: iter=   129 ; resid.=  1.75331450852213E-13
(PID.TID 0000.0001)  cg2d: iter=   130 ; resid.=  1.37131433175979E-13
(PID.TID 0000.0001)  cg2d: iter=   131 ; resid.=  1.12501925898033E-13
(PID.TID 0000.0001)  cg2d: iter=   132 ; resid.=  8.83685427344422E-14
DEBUG_STATS_RL:    cg2d_x (SOLVE_FOR_PRESSURE)  min= -1.65542486871955E+01
DEBUG_STATS_RL:    cg2d_x (SOLVE_FOR_PRESSURE)  max=  8.86649834284852E+00
DEBUG_STATS_RL:    cg2d_x (SOLVE_FOR_PRESSURE) mean= -1.63298031735537E+00
DEBUG_STATS_RL:    cg2d_x (SOLVE_FOR_PRESSURE) S.D.=  6.29787412626295E+00
(PID.TID 0000.0001)      cg2d_init_res =   4.13401749204560E-01
(PID.TID 0000.0001)      cg2d_iters(min,last) =      -1     132
(PID.TID 0000.0001)      cg2d_last_res =   8.83685427344422E-14
(PID.TID 0000.0001) // =======================================================
(PID.TID 0000.0001) // Begin MONITOR dynamic field statistics
(PID.TID 0000.0001) // =======================================================
(PID.TID 0000.0001) %MON time_tsnumber                =                    30
(PID.TID 0000.0001) %MON time_secondsf                =   2.5920000000000E+06
(PID.TID 0000.0001) %MON dynstat_eta_max              =   9.0382246104464E-01
(PID.TID 0000.0001) %MON dynstat_eta_min              =  -1.6874871240770E+00
(PID.TID 0000.0001) %MON dynstat_eta_mean             =  -2.2194692991571E-03
(PID.TID 0000.0001) %MON dynstat_eta_sd               =   5.5986651797165E-01
(PID.TID 0000.0001) %MON dynstat_eta_del2             =   2.1439174643327E-03
(PID.TID 0000.0001) %MON dynstat_uvel_max             =   8.5623376205680E-02
(PID.TID 0000.0001) %MON dynstat_uvel_min             =  -1.6644827047572E-01
(PID.TID 0000.0001) %MON dynstat_uvel_mean            =   1.0238460152887E-03
(PID.TID 0000.0001) %MON dynstat_uvel_sd              =   1.0344992778437E-02
(PID.TID 0000.0001) %MON dynstat_uvel_del2            =   7.2567802126235E-05
(PID.TID 0000.0001) %MON dynstat_vvel_max             =   1.1175149203186E-01
(PID.TID 0000.0001) %MON dynstat_vvel_min             =  -1.2852252362392E-01
(PID.TID 0000.0001) %MON dynstat_vvel_mean            =   2.3308150974372E-05
(PID.TID 0000.0001) %MON dynstat_vvel_sd              =   8.1994116769390E-03
(PID.TID 0000.0001) %MON dynstat_vvel_del2            =   7.1679864552106E-05
(PID.TID 0000.0001) %MON dynstat_wvel_max             =   1.0540658500566E-04
(PID.TID 0000.0001) %MON dynstat_wvel_min             =  -1.0756955311880E-04
(PID.TID 0000.0001) %MON dynstat_wvel_mean            =  -6.8565630286508E-23
(PID.TID 0000.0001) %MON dynstat_wvel_sd              =   1.2677763034906E-05
(PID.TID 0000.0001) %MON dynstat_wvel_del2            =   1.5465071535720E-07
(PID.TID 0000.0001) %MON dynstat_theta_max            =   2.9973559407768E+01
(PID.TID 0000.0001) %MON dynstat_theta_min            =  -2.0087315028932E+00
(PID.TID 0000.0001) %MON dynstat_theta_mean           =   3.6211844425056E+00
(PID.TID 0000.0001) %MON dynstat_theta_sd             =   4.4173388874209E+00
(PID.TID 0000.0001) %MON dynstat_theta_del2           =   4.8335975288719E-03
(PID.TID 0000.0001) %MON dynstat_salt_max             =   3.7452303931198E+01
(PID.TID 0000.0001) %MON dynstat_salt_min             =   2.9813171303199E+01
(PID.TID 0000.0001) %MON dynstat_salt_mean            =   3.4717980939461E+01
(PID.TID 0000.0001) %MON dynstat_salt_sd              =   2.9624958763594E-01
(PID.TID 0000.0001) %MON dynstat_salt_del2            =   9.9784909659463E-04
(PID.TID 0000.0001) %MON dynstat_sst_max              =   2.9973559407768E+01
(PID.TID 0000.0001) %MON dynstat_sst_min              =  -2.0087315028932E+00
(PID.TID 0000.0001) %MON dynstat_sst_mean             =   1.8736676266081E+01
(PID.TID 0000.0001) %MON dynstat_sst_sd               =   9.0545300156880E+00
(PID.TID 0000.0001) %MON dynstat_sst_del2             =   2.6640127684688E-02
(PID.TID 0000.0001) %MON dynstat_sss_max              =   3.7433163892906E+01
(PID.TID 0000.0001) %MON dynstat_sss_min              =   2.9813171303199E+01
(PID.TID 0000.0001) %MON dynstat_sss_mean             =   3.4846467441238E+01
(PID.TID 0000.0001) %MON dynstat_sss_sd               =   9.7519257117085E-01
(PID.TID 0000.0001) %MON dynstat_sss_del2             =   7.8674263766362E-03
(PID.TID 0000.0001) %MON forcing_qnet_max             =   3.9514640299479E+02
(PID.TID 0000.0001) %MON forcing_qnet_min             =  -1.7666627705892E+02
(PID.TID 0000.0001) %MON forcing_qnet_mean            =  -1.5323797657397E+01
(PID.TID 0000.0001) %MON forcing_qnet_sd              =   9.5133125046695E+01
(PID.TID 0000.0001) %MON forcing_qnet_del2            =   9.7583035332786E-01
(PID.TID 0000.0001) %MON forcing_qsw_max              =   0.0000000000000E+00
(PID.TID 0000.0001) %MON forcing_qsw_min              =   0.0000000000000E+00
(PID.TID 0000.0001) %MON forcing_qsw_mean             =   0.0000000000000E+00
(PID.TID 0000.0001) %MON forcing_qsw_sd               =   0.0000000000000E+00
(PID.TID 0000.0001) %MON forcing_qsw_del2             =   0.0000000000000E+00
(PID.TID 0000.0001) %MON forcing_empmr_max            =   7.7776982720934E-05
(PID.TID 0000.0001) %MON forcing_empmr_min            =  -7.7270975869700E-05
(PID.TID 0000.0001) %MON forcing_empmr_mean           =   9.3249062375004E-07
(PID.TID 0000.0001) %MON forcing_empmr_sd             =   2.8214611087815E-05
(PID.TID 0000.0001) %MON forcing_empmr_del2           =   3.5545803972656E-07
(PID.TID 0000.0001) %MON forcing_fu_max               =   2.8244099617004E-01
(PID.TID 0000.0001) %MON forcing_fu_min               =  -1.8917357027531E-01
(PID.TID 0000.0001) %MON forcing_fu_mean              =   1.6761938169132E-02
(PID.TID 0000.0001) %MON forcing_fu_sd                =   9.0031773326239E-02
(PID.TID 0000.0001) %MON forcing_fu_del2              =   6.6818963371085E-04
(PID.TID 0000.0001) %MON forcing_fv_max               =   1.9031694233418E-01
(PID.TID 0000.0001) %MON forcing_fv_min               =  -1.6425870358944E-01
(PID.TID 0000.0001) %MON forcing_fv_mean              =  -6.1725504335176E-03
(PID.TID 0000.0001) %MON forcing_fv_sd                =   4.5033516804219E-02
(PID.TID 0000.0001) %MON forcing_fv_del2              =   4.6460661813294E-04
(PID.TID 0000.0001) %MON trAdv_CFL_u_max              =   3.3271306454876E-02
(PID.TID 0000.0001) %MON trAdv_CFL_v_max              =   2.6029073938828E-02
(PID.TID 0000.0001) %MON trAdv_CFL_w_max              =   4.5269323058925E-02
(PID.TID 0000.0001) %MON advcfl_uvel_max              =   3.3328220014153E-02
(PID.TID 0000.0001) %MON advcfl_vvel_max              =   2.4969865086664E-02
(PID.TID 0000.0001) %MON advcfl_wvel_max              =   3.6703881935090E-02
(PID.TID 0000.0001) %MON advcfl_W_hf_max              =   4.4568999492609E-02
(PID.TID 0000.0001) %MON pe_b_mean                    =   4.0110402225677E-04
(PID.TID 0000.0001) %MON ke_max                       =   1.3473758791527E-02
(PID.TID 0000.0001) %MON ke_mean                      =   7.9279431545746E-05
(PID.TID 0000.0001) %MON ke_vol                       =   1.3226782436723E+18
(PID.TID 0000.0001) %MON vort_r_min                   =  -2.8839890544998E-07
(PID.TID 0000.0001) %MON vort_r_max                   =   3.9411614249306E-07
(PID.TID 0000.0001) %MON vort_a_mean                  =  -2.5274807053540E-05
(PID.TID 0000.0001) %MON vort_a_sd                    =   7.3604491773203E-05
(PID.TID 0000.0001) %MON vort_p_mean                  =  -3.1845655366153E-05
(PID.TID 0000.0001) %MON vort_p_sd                    =   1.3162540795899E-04
(PID.TID 0000.0001) %MON surfExpan_theta_mean         =   1.1709853552630E-07
(PID.TID 0000.0001) %MON surfExpan_salt_mean          =   4.5462958621254E-08
(PID.TID 0000.0001) // =======================================================
(PID.TID 0000.0001) // End MONITOR dynamic field statistics
(PID.TID 0000.0001) // =======================================================
(PID.TID 0000.0001) // =======================================================
(PID.TID 0000.0001) // Field Current uVel   at iteration         30
(PID.TID 0000.0001) // CMIN =         -1.664482704757240E-01
(PID.TID 0000.0001) // CMAX =          8.562337620567953E-02
(PID.TID 0000.0001) // CINT =          9.335986914126055E-03
(PID.TID 0000.0001) // SYMBOLS (CMIN->CMAX): -abcdefghijklmnopqrstuvwxyz+
(PID.TID 0000.0001) //                  0.0: .
(PID.TID 0000.0001) // RANGE I (Lo:Hi:Step):(     1:    90:     1)
(PID.TID 0000.0001) // RANGE J (Lo:Hi:Step):(    40:     1:    -1)
(PID.TID 0000.0001) // RANGE K (Lo:Hi:Step):(   1:   1:   1)
(PID.TID 0000.0001) // =======================================================
(PID.TID 0000.0001) K =   1
(PID.TID 0000.0001)                I=10      I=20      I=30      I=40      I=50      I=60      I=70      I=80      I=90
(PID.TID 0000.0001) |--J--|123456789|123456789|123456789|123456789|123456789|123456789|123456789|123456789|123456789|
(PID.TID 0000.0001)     40 rrrqq..qqqqqrrrrrrr...................................................................qqqq
(PID.TID 0000.0001)     39 rssrrrrrrrrrrr....r......................................................rrr.........ppppq
(PID.TID 0000.0001)     38 rsttssrrssssr............................................................rrrr.......pppqqr
(PID.TID 0000.0001)     37 tts...................................................................r....qq....ppop..stt
(PID.TID 0000.0001)     36 tt..........................................ppq.....................rrrrrrrqpr..qqqqrrsttt
(PID.TID 0000.0001)     35 ss..................................qqq...rqpppq....qqqr............rr.....srrrqprrrrssuut
(PID.TID 0000.0001)     34 ....................................rqq..qrrqqqq..rqpqqrr...................ssrsssssssss..
(PID.TID 0000.0001)     33 .....................................qqrqqrrrqrsrqqqrrrrrrr..................rsttutsrrrpq.
(PID.TID 0000.0001)     32 .....................................pppppqrrrrrrqqqrrrsssr.................tuttsssrqpppq.
(PID.TID 0000.0001)     31 .....................................ppppqqqrrrrrrrrsssttts...............swzxwvutsrqqpq..
(PID.TID 0000.0001)     30 ....................................sssrrssssssssttttuuutsr.............qsuuvvuuuttsrqqr..
(PID.TID 0000.0001)     29 ..................................twwvutuuuuuuvuuvuuvvvvtrqq............uvvutsrrssrrrqqr..
(PID.TID 0000.0001)     28 ................................rtuuuuutuvvvvwvvvvvwxwwvtsqpq..........tuutstsrrrrrqqqrq..
(PID.TID 0000.0001)     27 ...............r...............rsrrrrrrsuvvvuuuuuuvvwwvusrqppp....rqs..uuuuutsrrrqqqpp....
(PID.TID 0000.0001)     26 ...............ro............ommomlmmmnprsssrqqrrqqqrrqpoonnoprr..qqrststttssrqqpponmm....
(PID.TID 0000.0001)     25 ...............pnp....qr....mgkjiedefghijkllkkkklkkkkjjihhhjmnpqr....pnnnoonnlkklmjiii....
(PID.TID 0000.0001)     24 .............mmmlmo..pmq....kl..lb-abcbbcceeeefhiihhggedddegijlmnnno..lliliiihghhihiij....
(PID.TID 0000.0001)     23 .............lfiijm..mjn....jn...hfeeeddedfghiklnnmlmmlmljkkllmlllllm.....kkljiiijkmnn....
(PID.TID 0000.0001)     22 r............ighhgjnmmlo....n..snoomlkkkkijlnnnoppqqqrrsronopqqropnnnr.......njjimnprrqrts
(PID.TID 0000.0001)     21 ppp.........mlljijloopqrq......utsrppooonmnoqoooonqqprqprponorssopooqs.........mknopqrqrtr
(PID.TID 0000.0001)     20 opo........opqrronnpssrrq.........rqrrqppqqqrqopqpqppqpoqpompsqqnpnmor..........omnooopqtq
(PID.TID 0000.0001)     19 qnn........rrtuxsmnnqqpppnp....tt......rrsstttrttrqpqppqpnllopmmlmmlmo............mnnnpqpq
(PID.TID 0000.0001)     18 nmo........skmookgjjlljlmmoqsuuts....rursstututtsssqqqqpomkkljikjjjkmop...........nmmoqomm
(PID.TID 0000.0001)     17 jkn..........khfedfgimkklmpqrut......rsrrrrrqqqqqqrrrrqonmkkjiijihjkkmo..........rpmllmjii
(PID.TID 0000.0001)     16 ghk.......t..omlkjnkkpqnnoqrrs........rrssrrqqqrrrsstrrqonlllkllkkklmlmp.........trolkihhh
(PID.TID 0000.0001)     15 ihgm.....qp..tstttwtqtwtqpprs..........rsuuuuuvvvvwwwvtutrpppooonommmkjko.......tvsrpnlkjj
(PID.TID 0000.0001)     14 ljhj.....roptvvwwwywstwurqnop..........stuvwyxxxyyzz+zxxxwvutqpqqqpoonljn......svvtttrpnmm
(PID.TID 0000.0001)     13 onlk.....usrsttuuuwtssttrpono..........uuvuwxxxxxxyyzzyyzyxxwurssssqqpomp.....rtuvttuusrpo
(PID.TID 0000.0001)     12 qppoptsrtvtrrsrrrrssssssrqppqqrrrr.....ttuttuuuuuuvvvwwvvwwvwvttsrssrqpo......stuuuuuuttrr
(PID.TID 0000.0001)     11 rrrrsqttvwvuutsrrrrsssssrqqqrssssrq...ssssr..ssrrrrssstsrstssttsrqrssrqp.....rsuvuuuuuutss
(PID.TID 0000.0001)     10 ssrsttuvwwxxxwvttttssrsssrrrrssssrqq..rrrrq..tsrqpqqrrrqqppqqrrrrqqrrrrq...tsrssstuuuuuuut
(PID.TID 0000.0001)      9 uttttuvvvwxxwwwvutuuttttttttttssssrrrrrsrr..ttsrqqqrqqqqqqqqqqrrrrrrrrrq..rrssssstttuuuvvu
(PID.TID 0000.0001)      8 vuuvvvutuvwwwwvuuvvuvvuvuuuvuuuuuuvvvuuuuuttssrsstttttsstsstssssstssssss..rqrstuutststuuvv
(PID.TID 0000.0001)      7 vvvuuttttuuvvvuuvvwvvuuuuuuuuuuuvvxyxwwwvvwvuttuvvvvwvvvvttutttuuutuuuuwwussuvwvvutssstttu
(PID.TID 0000.0001)      6 tttsssstttttuuuuuvvuttsttttttuuuuuvvuuvvvvwwwvvwwvvwwvvvvttuuuuuvvvvvvwxyyyyyyxwvuttsssttt
(PID.TID 0000.0001)      5 rrrrssssssssssrssttsssssrrrrssssssssstuuuvwwwwwwwvvvuuttttuvvvuuvvvvvwwxxxwvvvuuttssssssrr
(PID.TID 0000.0001)      4 qqqqqqqqrqqqqqqqrrrrqqqqqqqqrqqqqqrrrrrrsstuttuutttssrrrstuuuuuuuuuuuuuuts...rsrrrrrrrrrqq
(PID.TID 0000.0001)      3 qpppppppqq.............................qqqrrrrrrrrqqqqqqrsssssssssssssrrr...rqqqqqqqqrqqqq
(PID.TID 0000.0001)      2 ...........................................rrrrrqqqqpppqqrrrrqqq...qqq......rrqqqqqqqrr...
(PID.TID 0000.0001)      1 ..........................................................................................
(PID.TID 0000.0001) // =======================================================
(PID.TID 0000.0001) // END OF FIELD                                          =
(PID.TID 0000.0001) // =======================================================
(PID.TID 0000.0001) 
(PID.TID 0000.0001) // =======================================================
(PID.TID 0000.0001) // Field Current vVel   at iteration         30
(PID.TID 0000.0001) // CMIN =         -1.285225236239180E-01
(PID.TID 0000.0001) // CMAX =          1.117514920318622E-01
(PID.TID 0000.0001) // CINT =          8.899037616880748E-03
(PID.TID 0000.0001) // SYMBOLS (CMIN->CMAX): -abcdefghijklmnopqrstuvwxyz+
(PID.TID 0000.0001) //                  0.0: .
(PID.TID 0000.0001) // RANGE I (Lo:Hi:Step):(     1:    90:     1)
(PID.TID 0000.0001) // RANGE J (Lo:Hi:Step):(    40:     1:    -1)
(PID.TID 0000.0001) // RANGE K (Lo:Hi:Step):(   1:   1:   1)
(PID.TID 0000.0001) // =======================================================
(PID.TID 0000.0001) K =   1
(PID.TID 0000.0001)                I=10      I=20      I=30      I=40      I=50      I=60      I=70      I=80      I=90
(PID.TID 0000.0001) |--J--|123456789|123456789|123456789|123456789|123456789|123456789|123456789|123456789|123456789|
(PID.TID 0000.0001)     40 mnprq.nmnnnooo...nn..................................................................mmmmm
(PID.TID 0000.0001)     39 oopppnnnnnnoo...........................................................nnno........klmnnn
(PID.TID 0000.0001)     38 ooo.......................................................................nnn......ml.oooo
(PID.TID 0000.0001)     37 pp...................................................................on...mnn...lmppp.oooo
(PID.TID 0000.0001)     36 pp.........................................pqqp....................nno....lklm.kknpqqpoppn
(PID.TID 0000.0001)     35 ...................................nnoo..ppqqqpo...nnopp...................lllllmnopppqq..
(PID.TID 0000.0001)     34 ....................................non.oppppppo.nnooooon...................lklmmmnoooqo..
(PID.TID 0000.0001)     33 ....................................onnnopooppooonnmmmlllmn.................mllmlklmmmmno.
(PID.TID 0000.0001)     32 ....................................nnlmmmmmmmmllkjjjjjjjlm................qnjijiijkkklm..
(PID.TID 0000.0001)     31 ....................................kihhhhiiiihggfgghhhiikl..............lkigfefgijjkkmn..
(PID.TID 0000.0001)     30 ...................................igecbcbbabccccdeefghijjk............nliigfgggijjkllmn..
(PID.TID 0000.0001)     29 .................................kjhfdaaaa--abcdeeefhiijkkjk...........okjjjjjkllllmnnnn..
(PID.TID 0000.0001)     28 ...............................qonmkiigffffefgfghihijklmnmlkl.........nmmmmmmmnpqqpppp....
(PID.TID 0000.0001)     27 ..............nn..............rrrqqqpomlmlkkkkjklmmmnoppqponmm...oors.onnooonnorssrrqo....
(PID.TID 0000.0001)     26 ..............opq...........ovyxutsrrqrqqponnnnoppppqqqqrpoponoo....tsroopqqqqrtutsrpm....
(PID.TID 0000.0001)     25 ..............sstt...onm...npr.xrqqqpqsssrqqpoprrrrppqppppopponnm....rrppoqrrrsstsqpop....
(PID.TID 0000.0001)     24 ............onqsutp.nonm...npp..hkmmnoqsrqpppoopqqqoooonoqqqqpnmlmop.....knooostsqomns....
(PID.TID 0000.0001)     23 ............npqrrpl.jkij...lq...dhjjkkmoonnoooppqssqrtttuvvtsqpmnoqqp.......nptvtrrrsr....
(PID.TID 0000.0001)     22 r...........kmmooligegin......pmijlmmmmmlklllnpqstttuuuwvtrrqnnnopppmk........qppqqstsqpno
(PID.TID 0000.0001)     21 lkk........klmligghjiknqp......n.oooppqqpnnooprrrqsutuuvutssqoooponooo.........mmqrrrsrpnm
(PID.TID 0000.0001)     20 jkl.......onoonifiloqrsrp......m......rrponoppooooprstutttutttssrrqqrp...........ttsrrppqn
(PID.TID 0000.0001)     19 kkk.......rqwxywspqrsttrono...nnn.....ssqponnnmnonnprrrssrrssuutqppqsp...........qppponopn
(PID.TID 0000.0001)     18 pnn.......r.+y+zwrooqqqponllnoo.....mnpnnonnmmllnmllnoponnopqrrrpmlnsto..........ppopqpopq
(PID.TID 0000.0001)     17 rpp.......q.rsrqokfhknmlllmnno.......nnlmmmlllkklkkkloomllnopoopomlorsq.........lmnnprspqr
(PID.TID 0000.0001)     16 ppq......rp.mnmmlgfhhiiijlnnn.........nmlllkkllkjjjklmlkjkmmmmopnlmnpqqp........lmmmnpqppp
(PID.TID 0000.0001)     15 nooo....mnn.moonnklonkijklmmm.........mmlllklmmllklmmmlkklmlloqpnllmnnppo......mmnonnoonon
(PID.TID 0000.0001)     14 oonm....klmmnoonnmosqkjlnnlkl.........onnnnmnonnnnoonnoooppnorrponnoppqrp.....mnnopooooppo
(PID.TID 0000.0001)     13 rqpn....moqqonnnnnqqonorspmlm.........ppqqqppppoopoooppqrqrrstrqrrqqqpqp.....noopqrqqrrsts
(PID.TID 0000.0001)     12 tsrqnmnpprtspprrrrrrqqrssqppponono....qrrqp.nopqqqpoopppqqrstsqrsssrrqqo.....qqqrstsststuu
(PID.TID 0000.0001)     11 uuttsrsssrstsrtuvvttttuutttsrqrqppp..oqqqpo.onopppooopppqqqrrqqrtttsrqqo....mpstttttssssuu
(PID.TID 0000.0001)     10 ttstuttsrqqststuvwuttuutttstsrrrqpqr.ppqpp..onooppppppppqrrrqqqrsssrqqpo..sompsuutttssssst
(PID.TID 0000.0001)      9 rrrrssrqponpqrrqsuspprssrrrrrqpppnorqpppop.ronooopopqqpppqrqpppqsrrqqpnp.psrpoqsssssrrrrqq
(PID.TID 0000.0001)      8 ppppqrqpponnoppoputqpppqqqpppppoonnnnmmllnqrqoooonllmmmoonponnoopqpppomo.prrrpqssrrqqqqppp
(PID.TID 0000.0001)      7 ooooooppooooonnnoqsrpoopooooppoonnoomllkjknppnnoponnmlkmnnnonnnnoooonnmnqqoopppppqpoopppoo
(PID.TID 0000.0001)      6 oonnnnooonmnnnnnnopponnonmmmnnnnmmmonmlkjjkmnnnonnnonmllllmnnmmmnnnmmmmmnoonnooonnnnnooooo
(PID.TID 0000.0001)      5 onnnnmmnnnmnnnnmnnnnnnnmmmmmnnnmmmlmmnmmllmmlmnonnnnnnmmmmmnnmmmnnnnmnnnno..onnnnnnnnooooo
(PID.TID 0000.0001)      4 nmmmmmmmmm............................nnnnnnmnoooooonnnnnnnnnnmmmmnnnnmmm...pnnnnnnnoonnnn
(PID.TID 0000.0001)      3 ..........................................nnnnnnnnnnnnnopooonnmn..nnnn.....oonnmmnnnonn...
(PID.TID 0000.0001)      2 ..........................................................................................
(PID.TID 0000.0001)      1 ..........................................................................................
(PID.TID 0000.0001) // =======================================================
(PID.TID 0000.0001) // END OF FIELD                                          =
(PID.TID 0000.0001) // =======================================================
(PID.TID 0000.0001) 
(PID.TID 0000.0001) // =======================================================
(PID.TID 0000.0001) // Field Current theta  at iteration         30
(PID.TID 0000.0001) // CMIN =         -2.008731502893174E+00
(PID.TID 0000.0001) // CMAX =          2.997355940776844E+01
(PID.TID 0000.0001) // CINT =          1.184529292987467E+00
(PID.TID 0000.0001) // SYMBOLS (CMIN->CMAX): -abcdefghijklmnopqrstuvwxyz+
(PID.TID 0000.0001) //                  0.0: .
(PID.TID 0000.0001) // RANGE I (Lo:Hi:Step):(     1:    90:     1)
(PID.TID 0000.0001) // RANGE J (Lo:Hi:Step):(    40:     1:    -1)
(PID.TID 0000.0001) // RANGE K (Lo:Hi:Step):(   1:   1:   1)
(PID.TID 0000.0001) // =======================================================
(PID.TID 0000.0001) K =   1
(PID.TID 0000.0001)                I=10      I=20      I=30      I=40      I=50      I=60      I=70      I=80      I=90
(PID.TID 0000.0001) |--J--|123456789|123456789|123456789|123456789|123456789|123456789|123456789|123456789|123456789|
(PID.TID 0000.0001)     40 aabccbaa-----abcdddbbbbbbbbbbbbbbbbbbbbbbbbbbbbbbbbbbbbbbbbbbbbbbbbbbbbbbbbbbbbbbbbbbbbaaa
(PID.TID 0000.0001)     39 bccdccccbaa---bbbddbbbbbbbbbbbbbbbbbbbbbbbbbbbbbbbbbbbbbbbbbbbbbbbbbbbbb----bbbbbbbbbbaaab
(PID.TID 0000.0001)     38 eeffeecddccaabbbbbbbbbbbbbbbbbbbbbbbbbbbbbbbbbbbbbbbbbbbbbbbbbbbbbbbbbbb-----bbbbbbcaaabcd
(PID.TID 0000.0001)     37 fggbbbbbbbbbbbbbbbbbbbbbbbbbbbbbbbbbbbbbbbbbbbbbbbbbbbbbbbbbbbbbbbbbbbbbbbaabbbbdcbdebddee
(PID.TID 0000.0001)     36 hgbbbbbbbbbbbbbbbbbbbbbbbbbbbbbbbbbbbbbbbbbcba-bbbbbbbbbbbbbbbbbbbbccccbabaccdbdefgghhhhhh
(PID.TID 0000.0001)     35 ggbbbbbbbbbbbbbbbbbbbbbbbbbbbbbbbbba---bbbcccccbbbbeeeefbbbbbbbbbbbbbbbbbbbcdeeeefghiiiihh
(PID.TID 0000.0001)     34 bbbbbbbbbbbbbbbbbbbbbbbbbbbbbbbbbbb----bbcddddddbddeeffggbbbbbbbbbbbbbbbbbbcaceefghijjjjbb
(PID.TID 0000.0001)     33 bbbbbbbbbbbbbbbbbbbbbbbbbbbbbbbbbbbb-abbccdddddeeeffffgghhibbbbbbbbbbbbbbbbbaadhijjkkkkkkb
(PID.TID 0000.0001)     32 bbbbbbbbbbbbbbbbbbbbbbbbbbbbbbbbbbbb-abccdeeeeffggggghhhiiibbbbbbbbbbbbbbbbcbbdjlmmmlllkkb
(PID.TID 0000.0001)     31 bbbbbbbbbbbbbbbbbbbbbbbbbbbbbbbbbbbbdfggghhiiiiiiiijjjkkkkkbbbbbbbbbbbbbbgjkjilnnnnnmmmmbb
(PID.TID 0000.0001)     30 bbbbbbbbbbbbbbbbbbbbbbbbbbbbbbbbbbblkkllllllllllllllmmmmmmlbbbbbbbbbbbbnnopqpppppppooonobb
(PID.TID 0000.0001)     29 bbbbbbbbbbbbbbbbbbbbbbbbbbbbbbbbboooooooooooooooooooopppoonmbbbbbbbbbbbqqrrrrqqqqqqqppopbb
(PID.TID 0000.0001)     28 bbbbbbbbbbbbbbbbbbbbbbbbbbbbbbboqqqqqqqqqqqqqqqqqqqqqrrqqponobbbbbbbbbsssssssrrrrrrqqqqpbb
(PID.TID 0000.0001)     27 bbbbbbbbbbbbbbvvbbbbbbbbbbbbbbrrsssstssssttttttstttssssrrrqppqbbbssttbuuuuuuuttttsssrrbbbb
(PID.TID 0000.0001)     26 bbbbbbbbbbbbbbvuubbbbbbbbbbbttuuuuuuvvvvvvvuuuuuuuuuuttsssrrrstubttvwvvvvvvvvuuuutssrqbbbb
(PID.TID 0000.0001)     25 bbbbbbbbbbbbbbvvvwbbbwwxbbbuuvwwvwwwwwwwwwwwvvvvvvvvuuuttttttuvwwbbbwwwwwwvvvvvuuutsrpbbbb
(PID.TID 0000.0001)     24 bbbbbbbbbbbbwvvwxyybwwwxbbbwwwbxxxxxxxxxxxwwwwwwwwvvvvvvvuuvvvwwwvvvbxwwwwwwwwvvvuutsrbbbb
(PID.TID 0000.0001)     23 bbbbbbbbbbbbwwwxxyzbxxxxbbbxxwbbyyyyyyxxxxxxxxxxxxxxxxxxxwxxxxxwwxwwwbbbbwwwwwwwwvvvvvbbbb
(PID.TID 0000.0001)     22 wbbbbbbbbbbbxxxyyyyyxxyybbbxxbyyzzzzzzzzzyyyyyyyyyxyxyxwwwwwxxwwwwwwwwbbbbbbyxxxxxxxxyxxww
(PID.TID 0000.0001)     21 xwwbbbbbbbbxxxxyyzzyyzz++bbbbbyyzzzzzzz++zzzyyyyyyyyyyxxwwwwwwwvwvvvvvbbbbbbbbyyyyyyyyyxxx
(PID.TID 0000.0001)     20 xwwbbbbbbbyxyxyyyzzzzzz++bbbbbbzbzzzzz++++zzzzzzzyyyyyxxxwxxxwwwwwvvvvbbbbbbbbbyyyyyyyyxxx
(PID.TID 0000.0001)     19 wvvbbbbbbbyzzzyyyyzzzzzzzzzbbbzzzbbbbb++++++z++z+zzzyyyyxxxxxxwwwwwwvvbbbbbbbbbbbyyyxxwwxx
(PID.TID 0000.0001)     18 vutbbbbbbbzzzyyyyyyzyyyzzzzzzz+zzbbb++++++++++++++zzzzzyyyyxxwwwvvwvvvubbbbbbbbbbyyxxwvwww
(PID.TID 0000.0001)     17 uutbbbbbbbzbzyxxyxxyyyyyyyyyyzzbbbbbzzzzzzzzzzzzzzzzzzyyyyyxxwwvvvvuuuvbbbbbbbbbyyyyxwuuvv
(PID.TID 0000.0001)     16 utsbbbbbbzzbzyyxxxxxxxxwwxxxxzbbbbbbbyyyyyyzzyzzyyyyzyyyyyyyxxwwvvvuutttbbbbbbbbyyyyywvvvu
(PID.TID 0000.0001)     15 utsrbbbbxyybxxxxxwwwwwwwvvwwxbbbbbbbbbxxxxxxxxxxxxxxyyyyyyyyxxwwwvuuutsssbbbbbbxxyxxxxxwvu
(PID.TID 0000.0001)     14 utsqbbbbxyxwxxwwwxwwvuuuuuuuubbbbbbbbbwwwwwwwwwwwxxxxxwwxxxxxwwwvvuutssssbbbbbwwxxxxxxwwvu
(PID.TID 0000.0001)     13 uttrbbbbwxwwwwvuvvvvvuuttttttbbbbbbbbbvvvvvvvvvvvvuuuvvvvwwxxwvvvuuuusssqbbbbvwwwwwwwwwvvu
(PID.TID 0000.0001)     12 tstsststuvuttutssssstutrrssssqqrrqbbbbuvuutttttsssssssssstuuuttttsstssrqbbbbbuvvvuttuutttt
(PID.TID 0000.0001)     11 qppqssssrrrrrrrqqpppprqppqpppqqqqqqbbtttsssbrrrqqrrrrqrrqrrrqqqrrqrrrrqpbbbbprttsrrrrrqqqq
(PID.TID 0000.0001)     10 mmlmooopoooonoonnnnmmnmmmmmlmnnooooobqrrqqqbpqqqqqpppppppppooooopoooppoobbonppppoonnooonnm
(PID.TID 0000.0001)      9 jiiijjjjiijjijjjiijjjjiiiijiijkllnnmmnoooobnnnnoooonnnnoonmmlmmmmmllmmmmbmnnnnmmllkjkkkjii
(PID.TID 0000.0001)      8 ffffffggffghhhgggggghhgggghhhiijjjkkjklllmlllllllllmmllllkkkjjkkkkkkkkljbllkkjjiihhgggffff
(PID.TID 0000.0001)      7 dddeeeefffeefgfffeefeeeeefgggggghhghhiijjjjjjkkkjiiihhiiiiiiihiiiiiiijijijjiihhgfeeeeeeedd
(PID.TID 0000.0001)      6 cccddeeeeeddeeeeeeeeeeeeeeeedeefeeefffgghhhhhhiihgfeeffffggffffghhhhhhhhhhhggffedddddccccc
(PID.TID 0000.0001)      5 ccddddddddddeeeeeedddddddddddeeeeeeeeeeeeffffffffedccddddeeeeeeeeffffffefffeedddcccccccccc
(PID.TID 0000.0001)      4 dddddcccccccccccccccccbbbbbbccccccccccccddddcccccccccccccccccddddddddddddcbbbaabcccccccccc
(PID.TID 0000.0001)      3 bccbbbaaaabbbbbbbbbbbbbbbbbbbbbbbbbbbbbbbbbbbbbbbbbbbbbbbbbbbbbbbbbbbbbbbbbbaaaabbcccccbbb
(PID.TID 0000.0001)      2 bbbbbbbbbbbbbbbbbbbbbbbbbbbbbbbbbbbbbbbbbbbccccbbbbbaaaaaaaaaaaabbaaaabbbbbaaaaabbbbbbbbbb
(PID.TID 0000.0001)      1 bbbbbbbbbbbbbbbbbbbbbbbbbbbbbbbbbbbbbbbbbbbbbbbbbbbbbbbbbbbbbbbbbbbbbbbbbbbbbbbbbbbbbbbbbb
(PID.TID 0000.0001) // =======================================================
(PID.TID 0000.0001) // END OF FIELD                                          =
(PID.TID 0000.0001) // =======================================================
(PID.TID 0000.0001) 
(PID.TID 0000.0001) // =======================================================
(PID.TID 0000.0001) // Field Current etaN   at iteration         30
(PID.TID 0000.0001) // CMIN =         -1.687487124076997E+00
(PID.TID 0000.0001) // CMAX =          9.038224610446443E-01
(PID.TID 0000.0001) // CINT =          9.597442907857928E-02
(PID.TID 0000.0001) // SYMBOLS (CMIN->CMAX): -abcdefghijklmnopqrstuvwxyz+
(PID.TID 0000.0001) //                  0.0: .
(PID.TID 0000.0001) // RANGE I (Lo:Hi:Step):(    -1:    92:     1)
(PID.TID 0000.0001) // RANGE J (Lo:Hi:Step):(    42:    -1:    -1)
(PID.TID 0000.0001) // RANGE K (Lo:Hi:Step):(   1:   1:   1)
(PID.TID 0000.0001) // =======================================================
(PID.TID 0000.0001) K =   1
(PID.TID 0000.0001)                I=8       I=18      I=28      I=38      I=48      I=58      I=68      I=78      I=88
(PID.TID 0000.0001) |--J--|101234567|901234567|901234567|901234567|901234567|901234567|901234567|901234567|901234567|9012
(PID.TID 0000.0001)     42 ............................................bccccccddddeeedddcccdd..dddd.....aaaaabbbbbbb.....
(PID.TID 0000.0001)     41 ..............................................................................................
(PID.TID 0000.0001)     40 jiiiijj.jjjjjjjjjjjjj..................................................................jjjjiii
(PID.TID 0000.0001)     39 iiiiiijjjjjjjjjj...jj.....................................................ihhh........jjjjiiii
(PID.TID 0000.0001)     38 ijjjjkkjjjjjjjk...........................................................iiiii......kjiiiijjj
(PID.TID 0000.0001)     37 jjjkk..................................................................ll...iii...jiiii.ijjjjk
(PID.TID 0000.0001)     36 kkkl.........................................oppp....................lllllkjiiii.jihhijkkjkkkl
(PID.TID 0000.0001)     35 llll.................................oooo..ooooppo...rqqqq...........llm....jhhhhggghijjkkllll
(PID.TID 0000.0001)     34 .....................................onoo.ppoooooo.qpooppqr..................jjhhhghhijkln....
(PID.TID 0000.0001)     33 l.....................................oooooooooopppppppppqqrr.................iiiijjjklmmml...
(PID.TID 0000.0001)     32 l.....................................ppooooppppqqqqqqqqqrrrr................gijjklmmmnmmll...
(PID.TID 0000.0001)     31 ......................................oppppppqqrrrrrrrrrsssss..............llmmmmmmmmnmmmm....
(PID.TID 0000.0001)     30 .....................................qqrrrrrrrrssssssssstttts............kmmopqqqppooonnnn....
(PID.TID 0000.0001)     29 ...................................tuuvvvuuuvuuuuuuutttuuuutts...........pqqrrrqqppppoonnn....
(PID.TID 0000.0001)     28 .................................vwwwxxxxwwwwwvvvvvvuuuuuuuutss.........rrrrrrqqqqqppooono....
(PID.TID 0000.0001)     27 ................rr..............yxxxxxxxxxxxxxwwwvvvvvvvuuuuttss...rrrr.ssrrrqqqppppooon......
(PID.TID 0000.0001)     26 ................rrr...........yyyyyxxxxxxxxyxxxwwwwwvvvvuuuttttsst.rrrtttttssrrrqqpppoon......
(PID.TID 0000.0001)     25 ................ssst...vuu...yyyyzyxxxxxxyyxxxxxwwwvvvvvuuutttttttu...tttttssrrqqqpppoon......
(PID.TID 0000.0001)     24 ..............sssstuv.vvuu...yyy.+zxxxxxxxxxxxwwwwwvvvvuuuuttttttttttt.ttttssrrqqqpppooo......
(PID.TID 0000.0001)     23 ..............sssstuu.vvuu...zyx..zyxxxxxxxxxxxxxwwwwvvvuuutuuuuttuuttu....rrsrrrqqppppq......
(PID.TID 0000.0001)     22 pqq...........ssttttuuuuuu...zy.wxxxxxxxxxxxxxxxwwwwvvvvuuutttuuuttutuuu......rrrqqqqqpqqqpqq.
(PID.TID 0000.0001)     21 pqqqq........tsstttuuuuuvvv.....wwwwwwwwwxxxxxwwwwwwwvvvuuuuutttttttttuu........rrqqqqqpqqpqqq
(PID.TID 0000.0001)     20 ppqpq.......tttttttuuuuvvvv......w.wwwwwxxxxxxwwwwwwwwwwvvvvuuuuttttttuu.........rrrrqqqqpppqp
(PID.TID 0000.0001)     19 ppppp.......uuuuuuuuuvvvvvvvv...www.....xxxxxxxxxxxxwxwwwwvvvvuuuttttttt...........rrrqqqppppp
(PID.TID 0000.0001)     18 ppooo.......uuvvuuuuvvvvvvvvvvwwwww...yyyyxxxxxxxxxxxxxwwwwvvvvuuuttttttt..........srrrqppppoo
(PID.TID 0000.0001)     17 ppooo.......v.xwvvvvvvvvvvvvvvvvv.....yyxxxxxxxxxxxxxxxwwwwvvvvvuuttttttt.........ssrrrqppppoo
(PID.TID 0000.0001)     16 qppoo......ww.xwwvwvvvvvvuuuvuvv.......xxxxxxxxwwxxxxxwwwwwwwwvvvuuuttttss........sssrrrqqqppo
(PID.TID 0000.0001)     15 qqppoo....xxv.xxwwwvwwuuvuuuttu.........xwwwwwwwwwwwwwxwwwwwwwwwvvuuuuttsrr......sssssssrrqqpp
(PID.TID 0000.0001)     14 rqqqpo....xwvvwwvvvvvvttttttsss.........wwvvvvwvvvvwwvwwwwxxwwxwvvuuuuuttss.....ssssssssssrqqq
(PID.TID 0000.0001)     13 srrqpp....wxwvvvuuuuuttttutssrr.........vvvvuuuuuuuuutuuvvvvwwxwvvvvvuuttss....sssssssssstsrrq
(PID.TID 0000.0001)     12 rrrqqppprtvwvuuvvuutttttttsssrrrrrrq....tuuttttttttssstttttuuuvuuvvuuuttsr.....ssrssrrsrssrrrq
(PID.TID 0000.0001)     11 qqqpppqrsssuvvuvvuutttsssssrrrrrrrrrr..ssssss.sssssrrsssststttttuvutttttsr....prqqqqqqqqqqqqqp
(PID.TID 0000.0001)     10 ooonnnnoooopqqqrssrqqqqqqqqqqppqqpqqqq.rrssss.qrrrrrrsssstsssssstuttrrrrrr..llopponnnnnoooooon
(PID.TID 0000.0001)      9 kllllllkjkkklmllmmmlllmnnmmnnnnnoppqrqpqrrrr.opqqrssrrrrstttsrrrsssrqqqqrr.onmnnnmlkkkkkkkklll
(PID.TID 0000.0001)      8 gghhhhggfggghijiiijihiijjjjjjjkllmmnooooppqqrpooppqqqqqqqrqrqppqqrrqqqqqrt.omllkkjhhgggggggghh
(PID.TID 0000.0001)      7 dddddddddeeefffggghhfeeeffgggghhiiijiiijklmnnnmmnmmllllmnnmnnmnnoooooooooponmlkjhhfeeeeeeddddd
(PID.TID 0000.0001)      6 bbbbbbccdddddeeeeeffedddeddeeffffffffeefghiklkkjjjihhggghijkkkkkllmlllllllkjihgfedddccccccbbbb
(PID.TID 0000.0001)      5 aaaabbbcccccccccdddddcccccccdddddddddddddeefgggggfeeedddefghiihhiiiihhhhhgfedcbbbbbbbbbbbaaaaa
(PID.TID 0000.0001)      4 aaaabbbbbbcccccdddccccccccdddcccccdccccccccdddddddcccccddeefffffffffffeeedde..-aaaaaaaaaaaaaaa
(PID.TID 0000.0001)      3 bbbbcccccccc............................cccccccccccccccddddddddddddddddddee..baaaaaaaaaabbbbbb
(PID.TID 0000.0001)      2 ............................................bccccccddddeeedddcccdd..dddd.....aaaaabbbbbbb.....
(PID.TID 0000.0001)      1 ..............................................................................................
(PID.TID 0000.0001)      0 jiiiijj.jjjjjjjjjjjjj..................................................................jjjjiii
(PID.TID 0000.0001)     -1 iiiiiijjjjjjjjjj...jj.....................................................ihhh........jjjjiiii
(PID.TID 0000.0001) // =======================================================
(PID.TID 0000.0001) // END OF FIELD                                          =
(PID.TID 0000.0001) // =======================================================
(PID.TID 0000.0001) 
(PID.TID 0000.0001)  MDS_WRITE_FIELD: it,rec,kS,kL,kH=      30     1  15   1  15 file=U.0000000030
(PID.TID 0000.0001)  MDS_WRITE_FIELD: it,rec,kS,kL,kH=      30     1  15   1  15 file=V.0000000030
(PID.TID 0000.0001)  MDS_WRITE_FIELD: it,rec,kS,kL,kH=      30     1  15   1  15 file=T.0000000030
(PID.TID 0000.0001)  MDS_WRITE_FIELD: it,rec,kS,kL,kH=      30     1  15   1  15 file=S.0000000030
(PID.TID 0000.0001)  MDS_WRITE_FIELD: it,rec,kS,kL,kH=      30     1   1   1   1 file=Eta.0000000030
(PID.TID 0000.0001)  MDS_WRITE_FIELD: it,rec,kS,kL,kH=      30     1  15   1  15 file=W.0000000030
(PID.TID 0000.0001)  MDS_WRITE_FIELD: it,rec,kS,kL,kH=      30     1  15   1  15 file=PH.0000000030
(PID.TID 0000.0001)  MDS_WRITE_FIELD: it,rec,kS,kL,kH=      30     1   1   1   1 file=PHL.0000000030
(PID.TID 0000.0001)  MDS_WRITE_FIELD: it,rec,kS,kL,kH=      30     1   1   1   1 file=ETAtave.0000000030
(PID.TID 0000.0001)  MDS_WRITE_FIELD: it,rec,kS,kL,kH=      30     1  15   1  15 file=Ttave.0000000030
(PID.TID 0000.0001)  MDS_WRITE_FIELD: it,rec,kS,kL,kH=      30     1  15   1  15 file=Stave.0000000030
(PID.TID 0000.0001)  MDS_WRITE_FIELD: it,rec,kS,kL,kH=      30     1  15   1  15 file=uVeltave.0000000030
(PID.TID 0000.0001)  MDS_WRITE_FIELD: it,rec,kS,kL,kH=      30     1  15   1  15 file=vVeltave.0000000030
(PID.TID 0000.0001)  MDS_WRITE_FIELD: it,rec,kS,kL,kH=      30     1  15   1  15 file=wVeltave.0000000030
(PID.TID 0000.0001)  MDS_WRITE_FIELD: it,rec,kS,kL,kH=      30     1   1   1   1 file=Eta2tave.0000000030
(PID.TID 0000.0001)  MDS_WRITE_FIELD: it,rec,kS,kL,kH=      30     1  15   1  15 file=UTtave.0000000030
(PID.TID 0000.0001)  MDS_WRITE_FIELD: it,rec,kS,kL,kH=      30     1  15   1  15 file=VTtave.0000000030
(PID.TID 0000.0001)  MDS_WRITE_FIELD: it,rec,kS,kL,kH=      30     1  15   1  15 file=WTtave.0000000030
(PID.TID 0000.0001)  MDS_WRITE_FIELD: it,rec,kS,kL,kH=      30     1  15   1  15 file=UStave.0000000030
(PID.TID 0000.0001)  MDS_WRITE_FIELD: it,rec,kS,kL,kH=      30     1  15   1  15 file=VStave.0000000030
(PID.TID 0000.0001)  MDS_WRITE_FIELD: it,rec,kS,kL,kH=      30     1  15   1  15 file=WStave.0000000030
(PID.TID 0000.0001)  MDS_WRITE_FIELD: it,rec,kS,kL,kH=      30     1  15   1  15 file=TTtave.0000000030
(PID.TID 0000.0001)  MDS_WRITE_FIELD: it,rec,kS,kL,kH=      30     1  15   1  15 file=UUtave.0000000030
(PID.TID 0000.0001)  MDS_WRITE_FIELD: it,rec,kS,kL,kH=      30     1  15   1  15 file=VVtave.0000000030
(PID.TID 0000.0001)  MDS_WRITE_FIELD: it,rec,kS,kL,kH=      30     1  15   1  15 file=UVtave.0000000030
(PID.TID 0000.0001)  MDS_WRITE_FIELD: it,rec,kS,kL,kH=      30     1  15   1  15 file=Tdiftave.0000000030
(PID.TID 0000.0001)  MDS_WRITE_FIELD: it,rec,kS,kL,kH=      30     1  15   1  15 file=PhHytave.0000000030
(PID.TID 0000.0001)  MDS_WRITE_FIELD: it,rec,kS,kL,kH=      30     1   1   1   1 file=PHLtave.0000000030
(PID.TID 0000.0001)  MDS_WRITE_FIELD: it,rec,kS,kL,kH=      30     1   1   1   1 file=uFluxtave.0000000030
(PID.TID 0000.0001)  MDS_WRITE_FIELD: it,rec,kS,kL,kH=      30     1   1   1   1 file=vFluxtave.0000000030
(PID.TID 0000.0001)  MDS_WRITE_FIELD: it,rec,kS,kL,kH=      30     1   1   1   1 file=tFluxtave.0000000030
(PID.TID 0000.0001)  MDS_WRITE_FIELD: it,rec,kS,kL,kH=      30     1   1   1   1 file=sFluxtave.0000000030
(PID.TID 0000.0001)  MDS_WRITE_FIELD: it,rec,kS,kL,kH=      30     1   1   1   1 file=PHL2tave.0000000030
(PID.TID 0000.0001)  MDS_WRITE_FIELD: it,rec,kS,kL,kH=      30     1  15   1  15 file=Convtave.0000000030
(PID.TID 0000.0001) // Time-average data written, t-step        30
(PID.TID 0000.0001) 
(PID.TID 0000.0001)  MDS_WRITE_FIELD: it,rec,kS,kL,kH=      30     1  15   1  15 file=GM_Kwx-T.0000000030
(PID.TID 0000.0001)  MDS_WRITE_FIELD: it,rec,kS,kL,kH=      30     1  15   1  15 file=GM_Kwy-T.0000000030
(PID.TID 0000.0001)  MDS_WRITE_FIELD: it,rec,kS,kL,kH=      30     1  15   1  15 file=GM_Kwz-T.0000000030
(PID.TID 0000.0001)  MDS_WRITE_FIELD: it,rec,kS,kL,kH=      30     1  15   1  15 file=pickup_cd.0000000030
(PID.TID 0000.0001)  MDS_WRITE_FIELD: it,rec,kS,kL,kH=      30     2  15   1  15 file=pickup_cd.0000000030
(PID.TID 0000.0001)  MDS_WRITE_FIELD: it,rec,kS,kL,kH=      30     3  15   1  15 file=pickup_cd.0000000030
(PID.TID 0000.0001)  MDS_WRITE_FIELD: it,rec,kS,kL,kH=      30     4  15   1  15 file=pickup_cd.0000000030
(PID.TID 0000.0001)  MDS_WRITE_FIELD: it,rec,kS,kL,kH=      30    61   1   1   1 file=pickup_cd.0000000030
(PID.TID 0000.0001)  MDS_WRITE_FIELD: it,rec,kS,kL,kH=      30    -1  15   1  15 file=pickup.0000000030
(PID.TID 0000.0001)  MDS_WRITE_FIELD: it,rec,kS,kL,kH=      30    -2  15   1  15 file=pickup.0000000030
(PID.TID 0000.0001)  MDS_WRITE_FIELD: it,rec,kS,kL,kH=      30    -3  15   1  15 file=pickup.0000000030
(PID.TID 0000.0001)  MDS_WRITE_FIELD: it,rec,kS,kL,kH=      30    -4  15   1  15 file=pickup.0000000030
(PID.TID 0000.0001)  MDS_WRITE_FIELD: it,rec,kS,kL,kH=      30    -5  15   1  15 file=pickup.0000000030
(PID.TID 0000.0001)  MDS_WRITE_FIELD: it,rec,kS,kL,kH=      30    -6  15   1  15 file=pickup.0000000030
(PID.TID 0000.0001)  MDS_WRITE_FIELD: it,rec,kS,kL,kH=      30    -7  15   1  15 file=pickup.0000000030
(PID.TID 0000.0001)  MDS_WRITE_FIELD: it,rec,kS,kL,kH=      30    -8  15   1  15 file=pickup.0000000030
(PID.TID 0000.0001)  MDS_WRITE_FIELD: it,rec,kS,kL,kH=      30  -121   1   1   1 file=pickup.0000000030
(PID.TID 0000.0001)  MDS_WRITE_FIELD: it,rec,kS,kL,kH=      30  -122   1   1   1 file=pickup.0000000030
(PID.TID 0000.0001)  MDS_WRITE_FIELD: it,rec,kS,kL,kH=      30  -123   1   1   1 file=pickup.0000000030
(PID.TID 0000.0001) %CHECKPOINT        30 0000000030
(PID.TID 0000.0001)  MDS_WRITE_FIELD: it,rec,kS,kL,kH=      30     1   1   1   1 file=ETAN_forecast.0000000030
(PID.TID 0000.0001)  MDS_WRITE_FIELD: it,rec,kS,kL,kH=      30     1  15   1  15 file=THETA_forecast.0000000030
(PID.TID 0000.0001)  MDS_WRITE_FIELD: it,rec,kS,kL,kH=      30     1  15   1  15 file=SALT_forecast.0000000030
(PID.TID 0000.0001)  MDS_WRITE_FIELD: it,rec,kS,kL,kH=      30     1  15   1  15 file=UVEL_forecast.0000000030
(PID.TID 0000.0001)  MDS_WRITE_FIELD: it,rec,kS,kL,kH=      30     1  15   1  15 file=VVEL_forecast.0000000030
(PID.TID 0000.0001)  MDS_WRITE_FIELD: it,rec,kS,kL,kH=      30     1   1   1   1 file=ETAN_analysis.0000000030
(PID.TID 0000.0001)  MDS_WRITE_FIELD: it,rec,kS,kL,kH=      30     1  15   1  15 file=THETA_analysis.0000000030
(PID.TID 0000.0001)  MDS_WRITE_FIELD: it,rec,kS,kL,kH=      30     1  15   1  15 file=SALT_analysis.0000000030
(PID.TID 0000.0001)  MDS_WRITE_FIELD: it,rec,kS,kL,kH=      30     1  15   1  15 file=UVEL_analysis.0000000030
(PID.TID 0000.0001)  MDS_WRITE_FIELD: it,rec,kS,kL,kH=      30     1  15   1  15 file=VVEL_analysis.0000000030
 EXTERNAL_FIELDS_LOAD,        30 : iP,iLd,i0,i1=    1    2    1    2 ; Wght=  0.5000000000  0.5000000000
 EXTERNAL_FIELDS_LOAD: (fu0,1),fu,fv= -3.5633E-02 -1.4435E-02 -2.5034E-02 -3.7446E-02
 EXTERNAL_FIELDS_LOAD: SST,SSS,Q,E-P=  2.1328E-01  3.4568E+01  2.5313E+02  1.0007E-05
DEBUG_STATS_RL:          Uvel (THERMODYNAMICS)  min= -1.66448270475724E-01
DEBUG_STATS_RL:          Uvel (THERMODYNAMICS)  max=  8.56233762056795E-02
DEBUG_STATS_RL:          Uvel (THERMODYNAMICS) mean=  1.35175367333602E-03
DEBUG_STATS_RL:          Uvel (THERMODYNAMICS) S.D.=  1.64986392040878E-02
DEBUG_STATS_RL:          Vvel (THERMODYNAMICS)  min= -1.28522523623918E-01
DEBUG_STATS_RL:          Vvel (THERMODYNAMICS)  max=  1.11751492031862E-01
DEBUG_STATS_RL:          Vvel (THERMODYNAMICS) mean=  5.71808609407208E-04
DEBUG_STATS_RL:          Vvel (THERMODYNAMICS) S.D.=  1.30737814269195E-02
DEBUG_STATS_RL:          Wvel (THERMODYNAMICS)  min= -1.07569553118795E-04
DEBUG_STATS_RL:          Wvel (THERMODYNAMICS)  max=  1.05406585005664E-04
DEBUG_STATS_RL:          Wvel (THERMODYNAMICS) mean= -2.99477896061344E-09
DEBUG_STATS_RL:          Wvel (THERMODYNAMICS) S.D.=  1.13397212106320E-05
DEBUG_STATS_RL:         Theta (THERMODYNAMICS)  min= -2.00790676965190E+00
DEBUG_STATS_RL:         Theta (THERMODYNAMICS)  max=  2.99918344332120E+01
DEBUG_STATS_RL:         Theta (THERMODYNAMICS) mean=  3.20936558887084E+00
DEBUG_STATS_RL:         Theta (THERMODYNAMICS) S.D.=  5.85912598503940E+00
DEBUG_STATS_RL:          Salt (THERMODYNAMICS)  min= -1.56125112837913E-17
DEBUG_STATS_RL:          Salt (THERMODYNAMICS)  max=  3.74529689028751E+01
DEBUG_STATS_RL:          Salt (THERMODYNAMICS) mean=  1.88449217801471E+01
DEBUG_STATS_RL:          Salt (THERMODYNAMICS) S.D.=  1.73004292473115E+01
DEBUG_STATS_RL:         GtNm1 (THERMODYNAMICS)  min= -2.61790548693288E-06
DEBUG_STATS_RL:         GtNm1 (THERMODYNAMICS)  max=  2.52544632968210E-06
DEBUG_STATS_RL:         GtNm1 (THERMODYNAMICS) mean=  4.71512026666503E-09
DEBUG_STATS_RL:         GtNm1 (THERMODYNAMICS) S.D.=  2.11107887578712E-07
DEBUG_STATS_RL:         GsNm1 (THERMODYNAMICS)  min= -4.87319444237506E-07
DEBUG_STATS_RL:         GsNm1 (THERMODYNAMICS)  max=  3.27051771246268E-07
DEBUG_STATS_RL:         GsNm1 (THERMODYNAMICS) mean= -6.80239400201886E-10
DEBUG_STATS_RL:         GsNm1 (THERMODYNAMICS) S.D.=  1.84693481190249E-08
DEBUG_STATS_RL:                EtaN (DYNAMICS)  min= -1.68748712407700E+00
DEBUG_STATS_RL:                EtaN (DYNAMICS)  max=  9.03822461044644E-01
DEBUG_STATS_RL:                EtaN (DYNAMICS) mean= -1.66460786682504E-01
DEBUG_STATS_RL:                EtaN (DYNAMICS) S.D.=  6.41985130098162E-01
DEBUG_STATS_RL:                Uvel (DYNAMICS)  min= -1.66448270475724E-01
DEBUG_STATS_RL:                Uvel (DYNAMICS)  max=  8.56233762056795E-02
DEBUG_STATS_RL:                Uvel (DYNAMICS) mean=  1.35175367333602E-03
DEBUG_STATS_RL:                Uvel (DYNAMICS) S.D.=  1.64986392040878E-02
DEBUG_STATS_RL:                Vvel (DYNAMICS)  min= -1.28522523623918E-01
DEBUG_STATS_RL:                Vvel (DYNAMICS)  max=  1.11751492031862E-01
DEBUG_STATS_RL:                Vvel (DYNAMICS) mean=  5.71808609407208E-04
DEBUG_STATS_RL:                Vvel (DYNAMICS) S.D.=  1.30737814269195E-02
DEBUG_STATS_RL:                Wvel (DYNAMICS)  min= -1.07569553118795E-04
DEBUG_STATS_RL:                Wvel (DYNAMICS)  max=  1.05406585005664E-04
DEBUG_STATS_RL:                Wvel (DYNAMICS) mean= -2.99477896061344E-09
DEBUG_STATS_RL:                Wvel (DYNAMICS) S.D.=  1.13397212106320E-05
DEBUG_STATS_RL:               Theta (DYNAMICS)  min= -2.00790676965190E+00
DEBUG_STATS_RL:               Theta (DYNAMICS)  max=  2.99918344332120E+01
DEBUG_STATS_RL:               Theta (DYNAMICS) mean=  3.20936558887084E+00
DEBUG_STATS_RL:               Theta (DYNAMICS) S.D.=  5.85912598503940E+00
DEBUG_STATS_RL:                Salt (DYNAMICS)  min= -1.56125112837913E-17
DEBUG_STATS_RL:                Salt (DYNAMICS)  max=  3.74529689028751E+01
DEBUG_STATS_RL:                Salt (DYNAMICS) mean=  1.88449217801471E+01
DEBUG_STATS_RL:                Salt (DYNAMICS) S.D.=  1.73004292473115E+01
DEBUG_STATS_RL:                  Gu (DYNAMICS)  min= -1.67896782927631E-01
DEBUG_STATS_RL:                  Gu (DYNAMICS)  max=  8.47447332171952E-02
DEBUG_STATS_RL:                  Gu (DYNAMICS) mean=  1.14517301940898E-03
DEBUG_STATS_RL:                  Gu (DYNAMICS) S.D.=  1.69294621215773E-02
DEBUG_STATS_RL:                  Gv (DYNAMICS)  min= -1.31878097478605E-01
DEBUG_STATS_RL:                  Gv (DYNAMICS)  max=  1.04340547982521E-01
DEBUG_STATS_RL:                  Gv (DYNAMICS) mean=  2.52810216669693E-03
DEBUG_STATS_RL:                  Gv (DYNAMICS) S.D.=  1.39661379137877E-02
DEBUG_STATS_RL:               GuNm1 (DYNAMICS)  min= -7.88748540063805E-06
DEBUG_STATS_RL:               GuNm1 (DYNAMICS)  max=  7.57126021525438E-06
DEBUG_STATS_RL:               GuNm1 (DYNAMICS) mean= -1.65558157723953E-08
DEBUG_STATS_RL:               GuNm1 (DYNAMICS) S.D.=  1.19841636710137E-06
DEBUG_STATS_RL:               GvNm1 (DYNAMICS)  min= -1.07791770303715E-05
DEBUG_STATS_RL:               GvNm1 (DYNAMICS)  max=  1.65758269124470E-05
DEBUG_STATS_RL:               GvNm1 (DYNAMICS) mean=  7.59666613278176E-07
DEBUG_STATS_RL:               GvNm1 (DYNAMICS) S.D.=  2.65026602788094E-06
DEBUG_STATS_RL:               GtNm1 (DYNAMICS)  min= -2.61790548693288E-06
DEBUG_STATS_RL:               GtNm1 (DYNAMICS)  max=  2.52544632968210E-06
DEBUG_STATS_RL:               GtNm1 (DYNAMICS) mean=  4.71512026666503E-09
DEBUG_STATS_RL:               GtNm1 (DYNAMICS) S.D.=  2.11107887578712E-07
DEBUG_STATS_RL:               GsNm1 (DYNAMICS)  min= -4.87319444237506E-07
DEBUG_STATS_RL:               GsNm1 (DYNAMICS)  max=  3.27051771246268E-07
DEBUG_STATS_RL:               GsNm1 (DYNAMICS) mean= -6.80239400201886E-10
DEBUG_STATS_RL:               GsNm1 (DYNAMICS) S.D.=  1.84693481190249E-08
DEBUG_STATS_RL:    cg2d_b (SOLVE_FOR_PRESSURE)  min= -2.12989147814270E+04
DEBUG_STATS_RL:    cg2d_b (SOLVE_FOR_PRESSURE)  max=  1.90047433792373E+04
DEBUG_STATS_RL:    cg2d_b (SOLVE_FOR_PRESSURE) mean=  2.20186102711595E+00
DEBUG_STATS_RL:    cg2d_b (SOLVE_FOR_PRESSURE) S.D.=  3.79526865095519E+03
 cg2d: Sum(rhs),rhsMax =   2.39322441076533E-01  1.39896974910619E+00
(PID.TID 0000.0001)  cg2d: iter=     1 ; resid.=  1.06096836438800E-01
(PID.TID 0000.0001)  cg2d: iter=     2 ; resid.=  5.89773684098678E-02
(PID.TID 0000.0001)  cg2d: iter=     3 ; resid.=  4.97534187282838E-02
(PID.TID 0000.0001)  cg2d: iter=     4 ; resid.=  5.10923898043602E-02
(PID.TID 0000.0001)  cg2d: iter=     5 ; resid.=  5.25190018816966E-02
(PID.TID 0000.0001)  cg2d: iter=     6 ; resid.=  4.47256930434443E-02
(PID.TID 0000.0001)  cg2d: iter=     7 ; resid.=  3.78407345026909E-02
(PID.TID 0000.0001)  cg2d: iter=     8 ; resid.=  2.92621204216539E-02
(PID.TID 0000.0001)  cg2d: iter=     9 ; resid.=  2.30994031870634E-02
(PID.TID 0000.0001)  cg2d: iter=    10 ; resid.=  1.94949797147579E-02
(PID.TID 0000.0001)  cg2d: iter=    11 ; resid.=  1.67861020624285E-02
(PID.TID 0000.0001)  cg2d: iter=    12 ; resid.=  1.50635995620725E-02
(PID.TID 0000.0001)  cg2d: iter=    13 ; resid.=  1.40237624088948E-02
(PID.TID 0000.0001)  cg2d: iter=    14 ; resid.=  1.14756102310748E-02
(PID.TID 0000.0001)  cg2d: iter=    15 ; resid.=  9.27893497114724E-03
(PID.TID 0000.0001)  cg2d: iter=    16 ; resid.=  7.36620778149083E-03
(PID.TID 0000.0001)  cg2d: iter=    17 ; resid.=  6.57952589740321E-03
(PID.TID 0000.0001)  cg2d: iter=    18 ; resid.=  5.69995702430137E-03
(PID.TID 0000.0001)  cg2d: iter=    19 ; resid.=  4.47319246080019E-03
(PID.TID 0000.0001)  cg2d: iter=    20 ; resid.=  3.63232684157842E-03
(PID.TID 0000.0001)  cg2d: iter=    21 ; resid.=  2.80556287342946E-03
(PID.TID 0000.0001)  cg2d: iter=    22 ; resid.=  2.19062295520555E-03
(PID.TID 0000.0001)  cg2d: iter=    23 ; resid.=  1.74816227956257E-03
(PID.TID 0000.0001)  cg2d: iter=    24 ; resid.=  1.41342379938188E-03
(PID.TID 0000.0001)  cg2d: iter=    25 ; resid.=  1.16280280744899E-03
(PID.TID 0000.0001)  cg2d: iter=    26 ; resid.=  1.01735369208042E-03
(PID.TID 0000.0001)  cg2d: iter=    27 ; resid.=  9.21758389630824E-04
(PID.TID 0000.0001)  cg2d: iter=    28 ; resid.=  8.07621416530094E-04
(PID.TID 0000.0001)  cg2d: iter=    29 ; resid.=  6.82988485183758E-04
(PID.TID 0000.0001)  cg2d: iter=    30 ; resid.=  5.34196216043311E-04
(PID.TID 0000.0001)  cg2d: iter=    31 ; resid.=  4.27664003620317E-04
(PID.TID 0000.0001)  cg2d: iter=    32 ; resid.=  3.35986968036309E-04
(PID.TID 0000.0001)  cg2d: iter=    33 ; resid.=  2.74482344216435E-04
(PID.TID 0000.0001)  cg2d: iter=    34 ; resid.=  2.21704099577633E-04
(PID.TID 0000.0001)  cg2d: iter=    35 ; resid.=  1.84291467325217E-04
(PID.TID 0000.0001)  cg2d: iter=    36 ; resid.=  1.64550969055235E-04
(PID.TID 0000.0001)  cg2d: iter=    37 ; resid.=  1.49022485728188E-04
(PID.TID 0000.0001)  cg2d: iter=    38 ; resid.=  1.38344901254815E-04
(PID.TID 0000.0001)  cg2d: iter=    39 ; resid.=  1.18772396145241E-04
(PID.TID 0000.0001)  cg2d: iter=    40 ; resid.=  1.01998342665556E-04
(PID.TID 0000.0001)  cg2d: iter=    41 ; resid.=  8.71524319386975E-05
(PID.TID 0000.0001)  cg2d: iter=    42 ; resid.=  7.19766278230293E-05
(PID.TID 0000.0001)  cg2d: iter=    43 ; resid.=  5.99569616497340E-05
(PID.TID 0000.0001)  cg2d: iter=    44 ; resid.=  4.92936566106959E-05
(PID.TID 0000.0001)  cg2d: iter=    45 ; resid.=  4.36969101800094E-05
(PID.TID 0000.0001)  cg2d: iter=    46 ; resid.=  3.67039276039812E-05
(PID.TID 0000.0001)  cg2d: iter=    47 ; resid.=  2.93192881551562E-05
(PID.TID 0000.0001)  cg2d: iter=    48 ; resid.=  2.18040605242198E-05
(PID.TID 0000.0001)  cg2d: iter=    49 ; resid.=  1.57973736978468E-05
(PID.TID 0000.0001)  cg2d: iter=    50 ; resid.=  1.21255839279563E-05
(PID.TID 0000.0001)  cg2d: iter=    51 ; resid.=  9.83261343200412E-06
(PID.TID 0000.0001)  cg2d: iter=    52 ; resid.=  8.25739578927671E-06
(PID.TID 0000.0001)  cg2d: iter=    53 ; resid.=  7.26625767804773E-06
(PID.TID 0000.0001)  cg2d: iter=    54 ; resid.=  6.31816895076231E-06
(PID.TID 0000.0001)  cg2d: iter=    55 ; resid.=  5.27020141313570E-06
(PID.TID 0000.0001)  cg2d: iter=    56 ; resid.=  4.39402864340466E-06
(PID.TID 0000.0001)  cg2d: iter=    57 ; resid.=  3.39239428179074E-06
(PID.TID 0000.0001)  cg2d: iter=    58 ; resid.=  2.64195089374721E-06
(PID.TID 0000.0001)  cg2d: iter=    59 ; resid.=  2.04758338388231E-06
(PID.TID 0000.0001)  cg2d: iter=    60 ; resid.=  1.64972299885183E-06
(PID.TID 0000.0001)  cg2d: iter=    61 ; resid.=  1.42353785551930E-06
(PID.TID 0000.0001)  cg2d: iter=    62 ; resid.=  1.26858923366346E-06
(PID.TID 0000.0001)  cg2d: iter=    63 ; resid.=  9.82036640278185E-07
(PID.TID 0000.0001)  cg2d: iter=    64 ; resid.=  6.99195092315650E-07
(PID.TID 0000.0001)  cg2d: iter=    65 ; resid.=  5.33101289779909E-07
(PID.TID 0000.0001)  cg2d: iter=    66 ; resid.=  4.48894695456121E-07
(PID.TID 0000.0001)  cg2d: iter=    67 ; resid.=  3.56338517416058E-07
(PID.TID 0000.0001)  cg2d: iter=    68 ; resid.=  2.84261528577043E-07
(PID.TID 0000.0001)  cg2d: iter=    69 ; resid.=  2.17847512362691E-07
(PID.TID 0000.0001)  cg2d: iter=    70 ; resid.=  1.68013657437789E-07
(PID.TID 0000.0001)  cg2d: iter=    71 ; resid.=  1.41502312872721E-07
(PID.TID 0000.0001)  cg2d: iter=    72 ; resid.=  1.15527543411902E-07
(PID.TID 0000.0001)  cg2d: iter=    73 ; resid.=  8.86752816360471E-08
(PID.TID 0000.0001)  cg2d: iter=    74 ; resid.=  6.76283131512760E-08
(PID.TID 0000.0001)  cg2d: iter=    75 ; resid.=  5.27704811068063E-08
(PID.TID 0000.0001)  cg2d: iter=    76 ; resid.=  4.59483086234820E-08
(PID.TID 0000.0001)  cg2d: iter=    77 ; resid.=  4.16070167020016E-08
(PID.TID 0000.0001)  cg2d: iter=    78 ; resid.=  3.75215636405892E-08
(PID.TID 0000.0001)  cg2d: iter=    79 ; resid.=  3.43816030254940E-08
(PID.TID 0000.0001)  cg2d: iter=    80 ; resid.=  2.99104789654362E-08
(PID.TID 0000.0001)  cg2d: iter=    81 ; resid.=  2.46444097302323E-08
(PID.TID 0000.0001)  cg2d: iter=    82 ; resid.=  1.93699902787341E-08
(PID.TID 0000.0001)  cg2d: iter=    83 ; resid.=  1.50278015625084E-08
(PID.TID 0000.0001)  cg2d: iter=    84 ; resid.=  1.15641384539460E-08
(PID.TID 0000.0001)  cg2d: iter=    85 ; resid.=  8.56054764460086E-09
(PID.TID 0000.0001)  cg2d: iter=    86 ; resid.=  6.74016481136230E-09
(PID.TID 0000.0001)  cg2d: iter=    87 ; resid.=  5.46807222683794E-09
(PID.TID 0000.0001)  cg2d: iter=    88 ; resid.=  4.25957690991952E-09
(PID.TID 0000.0001)  cg2d: iter=    89 ; resid.=  3.56408453214411E-09
(PID.TID 0000.0001)  cg2d: iter=    90 ; resid.=  2.95626048033531E-09
(PID.TID 0000.0001)  cg2d: iter=    91 ; resid.=  2.42100271322332E-09
(PID.TID 0000.0001)  cg2d: iter=    92 ; resid.=  1.93658451893736E-09
(PID.TID 0000.0001)  cg2d: iter=    93 ; resid.=  1.44174784521077E-09
(PID.TID 0000.0001)  cg2d: iter=    94 ; resid.=  1.00203826662608E-09
(PID.TID 0000.0001)  cg2d: iter=    95 ; resid.=  7.27412969909614E-10
(PID.TID 0000.0001)  cg2d: iter=    96 ; resid.=  5.63044316579216E-10
(PID.TID 0000.0001)  cg2d: iter=    97 ; resid.=  4.37121403451105E-10
(PID.TID 0000.0001)  cg2d: iter=    98 ; resid.=  3.23767016651865E-10
(PID.TID 0000.0001)  cg2d: iter=    99 ; resid.=  2.37261468297203E-10
(PID.TID 0000.0001)  cg2d: iter=   100 ; resid.=  1.92050659196139E-10
(PID.TID 0000.0001)  cg2d: iter=   101 ; resid.=  1.75621166239573E-10
(PID.TID 0000.0001)  cg2d: iter=   102 ; resid.=  1.58294209212708E-10
(PID.TID 0000.0001)  cg2d: iter=   103 ; resid.=  1.29399622409987E-10
(PID.TID 0000.0001)  cg2d: iter=   104 ; resid.=  1.12214223553862E-10
(PID.TID 0000.0001)  cg2d: iter=   105 ; resid.=  9.40246504116370E-11
(PID.TID 0000.0001)  cg2d: iter=   106 ; resid.=  7.33051411554790E-11
(PID.TID 0000.0001)  cg2d: iter=   107 ; resid.=  5.64596364457567E-11
(PID.TID 0000.0001)  cg2d: iter=   108 ; resid.=  4.20130838310718E-11
(PID.TID 0000.0001)  cg2d: iter=   109 ; resid.=  3.38306202963632E-11
(PID.TID 0000.0001)  cg2d: iter=   110 ; resid.=  2.69336705436332E-11
(PID.TID 0000.0001)  cg2d: iter=   111 ; resid.=  2.09413134037262E-11
(PID.TID 0000.0001)  cg2d: iter=   112 ; resid.=  1.81546464120369E-11
(PID.TID 0000.0001)  cg2d: iter=   113 ; resid.=  1.60389363808173E-11
(PID.TID 0000.0001)  cg2d: iter=   114 ; resid.=  1.28039259740890E-11
(PID.TID 0000.0001)  cg2d: iter=   115 ; resid.=  1.00705710587264E-11
(PID.TID 0000.0001)  cg2d: iter=   116 ; resid.=  8.06502264924414E-12
(PID.TID 0000.0001)  cg2d: iter=   117 ; resid.=  6.06461072447630E-12
(PID.TID 0000.0001)  cg2d: iter=   118 ; resid.=  4.18520662199651E-12
(PID.TID 0000.0001)  cg2d: iter=   119 ; resid.=  3.04187782420618E-12
(PID.TID 0000.0001)  cg2d: iter=   120 ; resid.=  2.24664399026809E-12
(PID.TID 0000.0001)  cg2d: iter=   121 ; resid.=  1.70817789390754E-12
(PID.TID 0000.0001)  cg2d: iter=   122 ; resid.=  1.30720199555099E-12
(PID.TID 0000.0001)  cg2d: iter=   123 ; resid.=  9.45020232034575E-13
(PID.TID 0000.0001)  cg2d: iter=   124 ; resid.=  6.75292952587572E-13
(PID.TID 0000.0001)  cg2d: iter=   125 ; resid.=  5.59846683722171E-13
(PID.TID 0000.0001)  cg2d: iter=   126 ; resid.=  4.75628328059388E-13
(PID.TID 0000.0001)  cg2d: iter=   127 ; resid.=  3.76600394708207E-13
(PID.TID 0000.0001)  cg2d: iter=   128 ; resid.=  2.67588094083021E-13
(PID.TID 0000.0001)  cg2d: iter=   129 ; resid.=  1.84570455734231E-13
(PID.TID 0000.0001)  cg2d: iter=   130 ; resid.=  1.44164470647441E-13
(PID.TID 0000.0001)  cg2d: iter=   131 ; resid.=  1.15042852135480E-13
(PID.TID 0000.0001)  cg2d: iter=   132 ; resid.=  8.86460669380730E-14
DEBUG_STATS_RL:    cg2d_x (SOLVE_FOR_PRESSURE)  min= -1.64817097951163E+01
DEBUG_STATS_RL:    cg2d_x (SOLVE_FOR_PRESSURE)  max=  8.87278704139135E+00
DEBUG_STATS_RL:    cg2d_x (SOLVE_FOR_PRESSURE) mean= -1.63646058719350E+00
DEBUG_STATS_RL:    cg2d_x (SOLVE_FOR_PRESSURE) S.D.=  6.29473792478425E+00
(PID.TID 0000.0001)      cg2d_init_res =   4.12027098844707E-01
(PID.TID 0000.0001)      cg2d_iters(min,last) =      -1     132
(PID.TID 0000.0001)      cg2d_last_res =   8.86460669380730E-14
(PID.TID 0000.0001) // =======================================================
(PID.TID 0000.0001) // Begin MONITOR dynamic field statistics
(PID.TID 0000.0001) // =======================================================
(PID.TID 0000.0001) %MON time_tsnumber                =                    31
(PID.TID 0000.0001) %MON time_secondsf                =   2.6784000000000E+06
(PID.TID 0000.0001) %MON dynstat_eta_max              =   9.0446351084526E-01
(PID.TID 0000.0001) %MON dynstat_eta_min              =  -1.6800927416020E+00
(PID.TID 0000.0001) %MON dynstat_eta_mean             =  -2.2973689600414E-03
(PID.TID 0000.0001) %MON dynstat_eta_sd               =   5.5904586221264E-01
(PID.TID 0000.0001) %MON dynstat_eta_del2             =   2.1547118923123E-03
(PID.TID 0000.0001) %MON dynstat_uvel_max             =   8.3454164006999E-02
(PID.TID 0000.0001) %MON dynstat_uvel_min             =  -1.6615123743603E-01
(PID.TID 0000.0001) %MON dynstat_uvel_mean            =   1.0058081930281E-03
(PID.TID 0000.0001) %MON dynstat_uvel_sd              =   1.0370174784205E-02
(PID.TID 0000.0001) %MON dynstat_uvel_del2            =   7.2744653337209E-05
(PID.TID 0000.0001) %MON dynstat_vvel_max             =   1.1059565147281E-01
(PID.TID 0000.0001) %MON dynstat_vvel_min             =  -1.2492846659478E-01
(PID.TID 0000.0001) %MON dynstat_vvel_mean            =   1.9971741542552E-05
(PID.TID 0000.0001) %MON dynstat_vvel_sd              =   8.0887800146061E-03
(PID.TID 0000.0001) %MON dynstat_vvel_del2            =   7.1617168422791E-05
(PID.TID 0000.0001) %MON dynstat_wvel_max             =   1.0253874846482E-04
(PID.TID 0000.0001) %MON dynstat_wvel_min             =  -9.1565573444673E-05
(PID.TID 0000.0001) %MON dynstat_wvel_mean            =   1.9980353523620E-22
(PID.TID 0000.0001) %MON dynstat_wvel_sd              =   1.2791192648820E-05
(PID.TID 0000.0001) %MON dynstat_wvel_del2            =   1.5748239379865E-07
(PID.TID 0000.0001) %MON dynstat_theta_max            =   2.9991834433212E+01
(PID.TID 0000.0001) %MON dynstat_theta_min            =  -2.0079067696519E+00
(PID.TID 0000.0001) %MON dynstat_theta_mean           =   3.6212661088966E+00
(PID.TID 0000.0001) %MON dynstat_theta_sd             =   4.4175122891139E+00
(PID.TID 0000.0001) %MON dynstat_theta_del2           =   4.8266403814626E-03
(PID.TID 0000.0001) %MON dynstat_salt_max             =   3.7452968902875E+01
(PID.TID 0000.0001) %MON dynstat_salt_min             =   2.9814934136882E+01
(PID.TID 0000.0001) %MON dynstat_salt_mean            =   3.4717980896956E+01
(PID.TID 0000.0001) %MON dynstat_salt_sd              =   2.9625519098073E-01
(PID.TID 0000.0001) %MON dynstat_salt_del2            =   9.9613865691139E-04
(PID.TID 0000.0001) %MON dynstat_sst_max              =   2.9991834433212E+01
(PID.TID 0000.0001) %MON dynstat_sst_min              =  -2.0079067696519E+00
(PID.TID 0000.0001) %MON dynstat_sst_mean             =   1.8744212703707E+01
(PID.TID 0000.0001) %MON dynstat_sst_sd               =   9.0515463197877E+00
(PID.TID 0000.0001) %MON dynstat_sst_del2             =   2.6657754981172E-02
(PID.TID 0000.0001) %MON dynstat_sss_max              =   3.7433170994158E+01
(PID.TID 0000.0001) %MON dynstat_sss_min              =   2.9814934136882E+01
(PID.TID 0000.0001) %MON dynstat_sss_mean             =   3.4845932625704E+01
(PID.TID 0000.0001) %MON dynstat_sss_sd               =   9.7542345483323E-01
(PID.TID 0000.0001) %MON dynstat_sss_del2             =   7.8607911735904E-03
(PID.TID 0000.0001) %MON forcing_qnet_max             =   3.9182731628418E+02
(PID.TID 0000.0001) %MON forcing_qnet_min             =  -1.7642675781250E+02
(PID.TID 0000.0001) %MON forcing_qnet_mean            =  -1.5238888489994E+01
(PID.TID 0000.0001) %MON forcing_qnet_sd              =   9.4114712979606E+01
(PID.TID 0000.0001) %MON forcing_qnet_del2            =   9.7322307830092E-01
(PID.TID 0000.0001) %MON forcing_qsw_max              =   0.0000000000000E+00
(PID.TID 0000.0001) %MON forcing_qsw_min              =   0.0000000000000E+00
(PID.TID 0000.0001) %MON forcing_qsw_mean             =   0.0000000000000E+00
(PID.TID 0000.0001) %MON forcing_qsw_sd               =   0.0000000000000E+00
(PID.TID 0000.0001) %MON forcing_qsw_del2             =   0.0000000000000E+00
(PID.TID 0000.0001) %MON forcing_empmr_max            =   7.7462892988933E-05
(PID.TID 0000.0001) %MON forcing_empmr_min            =  -7.7350620131256E-05
(PID.TID 0000.0001) %MON forcing_empmr_mean           =   9.3317302101000E-07
(PID.TID 0000.0001) %MON forcing_empmr_sd             =   2.8186220289087E-05
(PID.TID 0000.0001) %MON forcing_empmr_del2           =   3.5503679705846E-07
(PID.TID 0000.0001) %MON forcing_fu_max               =   2.8382815420628E-01
(PID.TID 0000.0001) %MON forcing_fu_min               =  -1.9083349406719E-01
(PID.TID 0000.0001) %MON forcing_fu_mean              =   1.6816238384601E-02
(PID.TID 0000.0001) %MON forcing_fu_sd                =   9.0089488020582E-02
(PID.TID 0000.0001) %MON forcing_fu_del2              =   6.6869774104657E-04
(PID.TID 0000.0001) %MON forcing_fv_max               =   1.8921542167664E-01
(PID.TID 0000.0001) %MON forcing_fv_min               =  -1.6326740384102E-01
(PID.TID 0000.0001) %MON forcing_fv_mean              =  -6.2378113402327E-03
(PID.TID 0000.0001) %MON forcing_fv_sd                =   4.4915007548310E-02
(PID.TID 0000.0001) %MON forcing_fv_del2              =   4.6591560448849E-04
(PID.TID 0000.0001) %MON trAdv_CFL_u_max              =   3.3334989214005E-02
(PID.TID 0000.0001) %MON trAdv_CFL_v_max              =   2.5547632790656E-02
(PID.TID 0000.0001) %MON trAdv_CFL_w_max              =   4.4568999492609E-02
(PID.TID 0000.0001) %MON advcfl_uvel_max              =   3.3268744583918E-02
(PID.TID 0000.0001) %MON advcfl_vvel_max              =   2.4271597447648E-02
(PID.TID 0000.0001) %MON advcfl_wvel_max              =   3.5960851006376E-02
(PID.TID 0000.0001) %MON advcfl_W_hf_max              =   4.3666747650599E-02
(PID.TID 0000.0001) %MON pe_b_mean                    =   3.9992947132948E-04
(PID.TID 0000.0001) %MON ke_max                       =   1.3611512137316E-02
(PID.TID 0000.0001) %MON ke_mean                      =   7.8690735052612E-05
(PID.TID 0000.0001) %MON ke_vol                       =   1.3226782436723E+18
(PID.TID 0000.0001) %MON vort_r_min                   =  -3.0628157187938E-07
(PID.TID 0000.0001) %MON vort_r_max                   =   4.0070971575514E-07
(PID.TID 0000.0001) %MON vort_a_mean                  =  -2.5274807050023E-05
(PID.TID 0000.0001) %MON vort_a_sd                    =   7.3604488937256E-05
(PID.TID 0000.0001) %MON vort_p_mean                  =  -3.1845655361722E-05
(PID.TID 0000.0001) %MON vort_p_sd                    =   1.3162536034427E-04
(PID.TID 0000.0001) %MON surfExpan_theta_mean         =   1.5234102862988E-07
(PID.TID 0000.0001) %MON surfExpan_salt_mean          =   4.6469840642062E-08
(PID.TID 0000.0001) // =======================================================
(PID.TID 0000.0001) // End MONITOR dynamic field statistics
(PID.TID 0000.0001) // =======================================================
 EXTERNAL_FIELDS_LOAD,        31 : iP,iLd,i0,i1=    1    2    1    2 ; Wght=  0.4666666667  0.5333333333
 EXTERNAL_FIELDS_LOAD: (fu0,1),fu,fv= -3.5633E-02 -1.4435E-02 -2.4327E-02 -3.6125E-02
 EXTERNAL_FIELDS_LOAD: SST,SSS,Q,E-P=  1.6361E-01  3.4558E+01  2.5228E+02  9.8983E-06
DEBUG_STATS_RL:          Uvel (THERMODYNAMICS)  min= -1.66151237436027E-01
DEBUG_STATS_RL:          Uvel (THERMODYNAMICS)  max=  8.34541640069994E-02
DEBUG_STATS_RL:          Uvel (THERMODYNAMICS) mean=  1.27330723260124E-03
DEBUG_STATS_RL:          Uvel (THERMODYNAMICS) S.D.=  1.66175928285007E-02
DEBUG_STATS_RL:          Vvel (THERMODYNAMICS)  min= -1.24928466594781E-01
DEBUG_STATS_RL:          Vvel (THERMODYNAMICS)  max=  1.10595651472806E-01
DEBUG_STATS_RL:          Vvel (THERMODYNAMICS) mean=  3.29908815446618E-04
DEBUG_STATS_RL:          Vvel (THERMODYNAMICS) S.D.=  1.28030300786691E-02
DEBUG_STATS_RL:          Wvel (THERMODYNAMICS)  min= -9.15655734446735E-05
DEBUG_STATS_RL:          Wvel (THERMODYNAMICS)  max=  1.02538748464816E-04
DEBUG_STATS_RL:          Wvel (THERMODYNAMICS) mean= -8.93762148118116E-08
DEBUG_STATS_RL:          Wvel (THERMODYNAMICS) S.D.=  1.15117598398833E-05
DEBUG_STATS_RL:         Theta (THERMODYNAMICS)  min= -2.00705249482534E+00
DEBUG_STATS_RL:         Theta (THERMODYNAMICS)  max=  3.00110767838802E+01
DEBUG_STATS_RL:         Theta (THERMODYNAMICS) mean=  3.20968812232923E+00
DEBUG_STATS_RL:         Theta (THERMODYNAMICS) S.D.=  5.85944193573080E+00
DEBUG_STATS_RL:          Salt (THERMODYNAMICS)  min= -1.56125112837913E-17
DEBUG_STATS_RL:          Salt (THERMODYNAMICS)  max=  3.74535219140697E+01
DEBUG_STATS_RL:          Salt (THERMODYNAMICS) mean=  1.88448958322273E+01
DEBUG_STATS_RL:          Salt (THERMODYNAMICS) S.D.=  1.73004061434335E+01
DEBUG_STATS_RL:         GtNm1 (THERMODYNAMICS)  min= -2.98993128194178E-06
DEBUG_STATS_RL:         GtNm1 (THERMODYNAMICS)  max=  2.46513974417895E-06
DEBUG_STATS_RL:         GtNm1 (THERMODYNAMICS) mean=  6.25372595837505E-09
DEBUG_STATS_RL:         GtNm1 (THERMODYNAMICS) S.D.=  2.08200288711981E-07
DEBUG_STATS_RL:         GsNm1 (THERMODYNAMICS)  min= -4.97456484285783E-07
DEBUG_STATS_RL:         GsNm1 (THERMODYNAMICS)  max=  3.34233142543187E-07
DEBUG_STATS_RL:         GsNm1 (THERMODYNAMICS) mean= -6.39779482994346E-10
DEBUG_STATS_RL:         GsNm1 (THERMODYNAMICS) S.D.=  1.81360009733821E-08
DEBUG_STATS_RL:                EtaN (DYNAMICS)  min= -1.68009274160197E+00
DEBUG_STATS_RL:                EtaN (DYNAMICS)  max=  9.04463510845256E-01
DEBUG_STATS_RL:                EtaN (DYNAMICS) mean= -1.66815554250102E-01
DEBUG_STATS_RL:                EtaN (DYNAMICS) S.D.=  6.41665435757824E-01
DEBUG_STATS_RL:                Uvel (DYNAMICS)  min= -1.66151237436027E-01
DEBUG_STATS_RL:                Uvel (DYNAMICS)  max=  8.34541640069994E-02
DEBUG_STATS_RL:                Uvel (DYNAMICS) mean=  1.27330723260124E-03
DEBUG_STATS_RL:                Uvel (DYNAMICS) S.D.=  1.66175928285007E-02
DEBUG_STATS_RL:                Vvel (DYNAMICS)  min= -1.24928466594781E-01
DEBUG_STATS_RL:                Vvel (DYNAMICS)  max=  1.10595651472806E-01
DEBUG_STATS_RL:                Vvel (DYNAMICS) mean=  3.29908815446618E-04
DEBUG_STATS_RL:                Vvel (DYNAMICS) S.D.=  1.28030300786691E-02
DEBUG_STATS_RL:                Wvel (DYNAMICS)  min= -9.15655734446735E-05
DEBUG_STATS_RL:                Wvel (DYNAMICS)  max=  1.02538748464816E-04
DEBUG_STATS_RL:                Wvel (DYNAMICS) mean= -8.93762148118116E-08
DEBUG_STATS_RL:                Wvel (DYNAMICS) S.D.=  1.15117598398833E-05
DEBUG_STATS_RL:               Theta (DYNAMICS)  min= -2.00705249482534E+00
DEBUG_STATS_RL:               Theta (DYNAMICS)  max=  3.00110767838802E+01
DEBUG_STATS_RL:               Theta (DYNAMICS) mean=  3.20968812232923E+00
DEBUG_STATS_RL:               Theta (DYNAMICS) S.D.=  5.85944193573080E+00
DEBUG_STATS_RL:                Salt (DYNAMICS)  min= -1.56125112837913E-17
DEBUG_STATS_RL:                Salt (DYNAMICS)  max=  3.74535219140697E+01
DEBUG_STATS_RL:                Salt (DYNAMICS) mean=  1.88448958322273E+01
DEBUG_STATS_RL:                Salt (DYNAMICS) S.D.=  1.73004061434335E+01
DEBUG_STATS_RL:                  Gu (DYNAMICS)  min= -1.67060918874126E-01
DEBUG_STATS_RL:                  Gu (DYNAMICS)  max=  8.21217975777616E-02
DEBUG_STATS_RL:                  Gu (DYNAMICS) mean=  1.14478106828143E-03
DEBUG_STATS_RL:                  Gu (DYNAMICS) S.D.=  1.71976344759413E-02
DEBUG_STATS_RL:                  Gv (DYNAMICS)  min= -1.27249083728789E-01
DEBUG_STATS_RL:                  Gv (DYNAMICS)  max=  1.02996804090566E-01
DEBUG_STATS_RL:                  Gv (DYNAMICS) mean=  2.32066271944875E-03
DEBUG_STATS_RL:                  Gv (DYNAMICS) S.D.=  1.36025955876656E-02
DEBUG_STATS_RL:               GuNm1 (DYNAMICS)  min= -7.88171547624732E-06
DEBUG_STATS_RL:               GuNm1 (DYNAMICS)  max=  7.64031977419364E-06
DEBUG_STATS_RL:               GuNm1 (DYNAMICS) mean= -1.72220207689702E-08
DEBUG_STATS_RL:               GuNm1 (DYNAMICS) S.D.=  1.19652199100080E-06
DEBUG_STATS_RL:               GvNm1 (DYNAMICS)  min= -1.07646245900662E-05
DEBUG_STATS_RL:               GvNm1 (DYNAMICS)  max=  1.65345525093815E-05
DEBUG_STATS_RL:               GvNm1 (DYNAMICS) mean=  7.58358728398370E-07
DEBUG_STATS_RL:               GvNm1 (DYNAMICS) S.D.=  2.64823773299607E-06
DEBUG_STATS_RL:               GtNm1 (DYNAMICS)  min= -2.98993128194178E-06
DEBUG_STATS_RL:               GtNm1 (DYNAMICS)  max=  2.46513974417895E-06
DEBUG_STATS_RL:               GtNm1 (DYNAMICS) mean=  6.25372595837505E-09
DEBUG_STATS_RL:               GtNm1 (DYNAMICS) S.D.=  2.08200288711981E-07
DEBUG_STATS_RL:               GsNm1 (DYNAMICS)  min= -4.97456484285783E-07
DEBUG_STATS_RL:               GsNm1 (DYNAMICS)  max=  3.34233142543187E-07
DEBUG_STATS_RL:               GsNm1 (DYNAMICS) mean= -6.39779482994346E-10
DEBUG_STATS_RL:               GsNm1 (DYNAMICS) S.D.=  1.81360009733821E-08
DEBUG_STATS_RL:    cg2d_b (SOLVE_FOR_PRESSURE)  min= -2.09172744673665E+04
DEBUG_STATS_RL:    cg2d_b (SOLVE_FOR_PRESSURE)  max=  1.90094315206356E+04
DEBUG_STATS_RL:    cg2d_b (SOLVE_FOR_PRESSURE) mean=  2.27657678242837E+00
DEBUG_STATS_RL:    cg2d_b (SOLVE_FOR_PRESSURE) S.D.=  3.78865678422845E+03
 cg2d: Sum(rhs),rhsMax =   2.51958029213881E-01  1.37390259146511E+00
(PID.TID 0000.0001)  cg2d: iter=     1 ; resid.=  1.04020570705377E-01
(PID.TID 0000.0001)  cg2d: iter=     2 ; resid.=  5.83835692444887E-02
(PID.TID 0000.0001)  cg2d: iter=     3 ; resid.=  4.95760723485600E-02
(PID.TID 0000.0001)  cg2d: iter=     4 ; resid.=  5.15131599311811E-02
(PID.TID 0000.0001)  cg2d: iter=     5 ; resid.=  5.29390165706036E-02
(PID.TID 0000.0001)  cg2d: iter=     6 ; resid.=  4.47594343348218E-02
(PID.TID 0000.0001)  cg2d: iter=     7 ; resid.=  3.74158254838696E-02
(PID.TID 0000.0001)  cg2d: iter=     8 ; resid.=  2.90019614226084E-02
(PID.TID 0000.0001)  cg2d: iter=     9 ; resid.=  2.28944507258992E-02
(PID.TID 0000.0001)  cg2d: iter=    10 ; resid.=  1.92955110455585E-02
(PID.TID 0000.0001)  cg2d: iter=    11 ; resid.=  1.67562200938049E-02
(PID.TID 0000.0001)  cg2d: iter=    12 ; resid.=  1.50858862362700E-02
(PID.TID 0000.0001)  cg2d: iter=    13 ; resid.=  1.39743740027687E-02
(PID.TID 0000.0001)  cg2d: iter=    14 ; resid.=  1.14600406407658E-02
(PID.TID 0000.0001)  cg2d: iter=    15 ; resid.=  9.16780560414801E-03
(PID.TID 0000.0001)  cg2d: iter=    16 ; resid.=  7.30442549320676E-03
(PID.TID 0000.0001)  cg2d: iter=    17 ; resid.=  6.57236865235011E-03
(PID.TID 0000.0001)  cg2d: iter=    18 ; resid.=  5.60645098450316E-03
(PID.TID 0000.0001)  cg2d: iter=    19 ; resid.=  4.34531208733903E-03
(PID.TID 0000.0001)  cg2d: iter=    20 ; resid.=  3.50355303527846E-03
(PID.TID 0000.0001)  cg2d: iter=    21 ; resid.=  2.71958099656409E-03
(PID.TID 0000.0001)  cg2d: iter=    22 ; resid.=  2.13663691877868E-03
(PID.TID 0000.0001)  cg2d: iter=    23 ; resid.=  1.72913111599713E-03
(PID.TID 0000.0001)  cg2d: iter=    24 ; resid.=  1.40999590399770E-03
(PID.TID 0000.0001)  cg2d: iter=    25 ; resid.=  1.16683553888688E-03
(PID.TID 0000.0001)  cg2d: iter=    26 ; resid.=  1.02424891204158E-03
(PID.TID 0000.0001)  cg2d: iter=    27 ; resid.=  9.26854353379575E-04
(PID.TID 0000.0001)  cg2d: iter=    28 ; resid.=  8.09061924507978E-04
(PID.TID 0000.0001)  cg2d: iter=    29 ; resid.=  6.74103968891264E-04
(PID.TID 0000.0001)  cg2d: iter=    30 ; resid.=  5.23010790448242E-04
(PID.TID 0000.0001)  cg2d: iter=    31 ; resid.=  4.20685939953945E-04
(PID.TID 0000.0001)  cg2d: iter=    32 ; resid.=  3.30537335261162E-04
(PID.TID 0000.0001)  cg2d: iter=    33 ; resid.=  2.69815176735276E-04
(PID.TID 0000.0001)  cg2d: iter=    34 ; resid.=  2.15309402166347E-04
(PID.TID 0000.0001)  cg2d: iter=    35 ; resid.=  1.80047179260149E-04
(PID.TID 0000.0001)  cg2d: iter=    36 ; resid.=  1.62232955828519E-04
(PID.TID 0000.0001)  cg2d: iter=    37 ; resid.=  1.48283493462804E-04
(PID.TID 0000.0001)  cg2d: iter=    38 ; resid.=  1.36933772625088E-04
(PID.TID 0000.0001)  cg2d: iter=    39 ; resid.=  1.16249904866643E-04
(PID.TID 0000.0001)  cg2d: iter=    40 ; resid.=  9.96687885823297E-05
(PID.TID 0000.0001)  cg2d: iter=    41 ; resid.=  8.49537746487303E-05
(PID.TID 0000.0001)  cg2d: iter=    42 ; resid.=  6.97425042139753E-05
(PID.TID 0000.0001)  cg2d: iter=    43 ; resid.=  5.86187704422725E-05
(PID.TID 0000.0001)  cg2d: iter=    44 ; resid.=  4.94890963369371E-05
(PID.TID 0000.0001)  cg2d: iter=    45 ; resid.=  4.36103325381085E-05
(PID.TID 0000.0001)  cg2d: iter=    46 ; resid.=  3.63572898320742E-05
(PID.TID 0000.0001)  cg2d: iter=    47 ; resid.=  2.86123232928227E-05
(PID.TID 0000.0001)  cg2d: iter=    48 ; resid.=  2.14089063815529E-05
(PID.TID 0000.0001)  cg2d: iter=    49 ; resid.=  1.55410654532473E-05
(PID.TID 0000.0001)  cg2d: iter=    50 ; resid.=  1.19471159715297E-05
(PID.TID 0000.0001)  cg2d: iter=    51 ; resid.=  9.68588574372646E-06
(PID.TID 0000.0001)  cg2d: iter=    52 ; resid.=  8.36494350018844E-06
(PID.TID 0000.0001)  cg2d: iter=    53 ; resid.=  7.60793292383055E-06
(PID.TID 0000.0001)  cg2d: iter=    54 ; resid.=  6.51967504784822E-06
(PID.TID 0000.0001)  cg2d: iter=    55 ; resid.=  5.31774417961327E-06
(PID.TID 0000.0001)  cg2d: iter=    56 ; resid.=  4.34910952669167E-06
(PID.TID 0000.0001)  cg2d: iter=    57 ; resid.=  3.35304940494236E-06
(PID.TID 0000.0001)  cg2d: iter=    58 ; resid.=  2.62809639834012E-06
(PID.TID 0000.0001)  cg2d: iter=    59 ; resid.=  2.06443761971864E-06
(PID.TID 0000.0001)  cg2d: iter=    60 ; resid.=  1.63748686946033E-06
(PID.TID 0000.0001)  cg2d: iter=    61 ; resid.=  1.38685017154442E-06
(PID.TID 0000.0001)  cg2d: iter=    62 ; resid.=  1.23521214272311E-06
(PID.TID 0000.0001)  cg2d: iter=    63 ; resid.=  9.38198700728348E-07
(PID.TID 0000.0001)  cg2d: iter=    64 ; resid.=  6.69627113506987E-07
(PID.TID 0000.0001)  cg2d: iter=    65 ; resid.=  5.11798095342899E-07
(PID.TID 0000.0001)  cg2d: iter=    66 ; resid.=  4.31536406632799E-07
(PID.TID 0000.0001)  cg2d: iter=    67 ; resid.=  3.41952111396716E-07
(PID.TID 0000.0001)  cg2d: iter=    68 ; resid.=  2.73623654132696E-07
(PID.TID 0000.0001)  cg2d: iter=    69 ; resid.=  2.05490258211117E-07
(PID.TID 0000.0001)  cg2d: iter=    70 ; resid.=  1.54972586830415E-07
(PID.TID 0000.0001)  cg2d: iter=    71 ; resid.=  1.25129198316867E-07
(PID.TID 0000.0001)  cg2d: iter=    72 ; resid.=  9.92818675934640E-08
(PID.TID 0000.0001)  cg2d: iter=    73 ; resid.=  7.57483851815297E-08
(PID.TID 0000.0001)  cg2d: iter=    74 ; resid.=  5.70160774463555E-08
(PID.TID 0000.0001)  cg2d: iter=    75 ; resid.=  4.40931516971321E-08
(PID.TID 0000.0001)  cg2d: iter=    76 ; resid.=  3.68565435281234E-08
(PID.TID 0000.0001)  cg2d: iter=    77 ; resid.=  3.16843381062905E-08
(PID.TID 0000.0001)  cg2d: iter=    78 ; resid.=  2.76010858789285E-08
(PID.TID 0000.0001)  cg2d: iter=    79 ; resid.=  2.55098385711537E-08
(PID.TID 0000.0001)  cg2d: iter=    80 ; resid.=  2.37867140121103E-08
(PID.TID 0000.0001)  cg2d: iter=    81 ; resid.=  2.04033216406900E-08
(PID.TID 0000.0001)  cg2d: iter=    82 ; resid.=  1.65538417382951E-08
(PID.TID 0000.0001)  cg2d: iter=    83 ; resid.=  1.30577023423112E-08
(PID.TID 0000.0001)  cg2d: iter=    84 ; resid.=  1.03765809270468E-08
(PID.TID 0000.0001)  cg2d: iter=    85 ; resid.=  7.82265951317309E-09
(PID.TID 0000.0001)  cg2d: iter=    86 ; resid.=  6.15937829268263E-09
(PID.TID 0000.0001)  cg2d: iter=    87 ; resid.=  4.97305864874380E-09
(PID.TID 0000.0001)  cg2d: iter=    88 ; resid.=  3.83808021681722E-09
(PID.TID 0000.0001)  cg2d: iter=    89 ; resid.=  3.19177424415008E-09
(PID.TID 0000.0001)  cg2d: iter=    90 ; resid.=  2.69509968166512E-09
(PID.TID 0000.0001)  cg2d: iter=    91 ; resid.=  2.24701178496876E-09
(PID.TID 0000.0001)  cg2d: iter=    92 ; resid.=  1.77132449090444E-09
(PID.TID 0000.0001)  cg2d: iter=    93 ; resid.=  1.32344920460394E-09
(PID.TID 0000.0001)  cg2d: iter=    94 ; resid.=  9.43541996044474E-10
(PID.TID 0000.0001)  cg2d: iter=    95 ; resid.=  7.07541624237539E-10
(PID.TID 0000.0001)  cg2d: iter=    96 ; resid.=  5.51492769552466E-10
(PID.TID 0000.0001)  cg2d: iter=    97 ; resid.=  4.36029932274271E-10
(PID.TID 0000.0001)  cg2d: iter=    98 ; resid.=  3.20696604700365E-10
(PID.TID 0000.0001)  cg2d: iter=    99 ; resid.=  2.30688509248222E-10
(PID.TID 0000.0001)  cg2d: iter=   100 ; resid.=  1.86935035432610E-10
(PID.TID 0000.0001)  cg2d: iter=   101 ; resid.=  1.70950401478408E-10
(PID.TID 0000.0001)  cg2d: iter=   102 ; resid.=  1.56591213913441E-10
(PID.TID 0000.0001)  cg2d: iter=   103 ; resid.=  1.30057778631696E-10
(PID.TID 0000.0001)  cg2d: iter=   104 ; resid.=  1.12887848032327E-10
(PID.TID 0000.0001)  cg2d: iter=   105 ; resid.=  9.48657862530881E-11
(PID.TID 0000.0001)  cg2d: iter=   106 ; resid.=  7.43190359734774E-11
(PID.TID 0000.0001)  cg2d: iter=   107 ; resid.=  5.62068191839325E-11
(PID.TID 0000.0001)  cg2d: iter=   108 ; resid.=  4.17550438574704E-11
(PID.TID 0000.0001)  cg2d: iter=   109 ; resid.=  3.35178190606514E-11
(PID.TID 0000.0001)  cg2d: iter=   110 ; resid.=  2.69977903271408E-11
(PID.TID 0000.0001)  cg2d: iter=   111 ; resid.=  2.08243914830394E-11
(PID.TID 0000.0001)  cg2d: iter=   112 ; resid.=  1.75176411537646E-11
(PID.TID 0000.0001)  cg2d: iter=   113 ; resid.=  1.49648867178490E-11
(PID.TID 0000.0001)  cg2d: iter=   114 ; resid.=  1.18053624788054E-11
(PID.TID 0000.0001)  cg2d: iter=   115 ; resid.=  9.35844553645782E-12
(PID.TID 0000.0001)  cg2d: iter=   116 ; resid.=  7.30934019290276E-12
(PID.TID 0000.0001)  cg2d: iter=   117 ; resid.=  5.60198829116698E-12
(PID.TID 0000.0001)  cg2d: iter=   118 ; resid.=  3.91430810193020E-12
(PID.TID 0000.0001)  cg2d: iter=   119 ; resid.=  2.92342945143150E-12
(PID.TID 0000.0001)  cg2d: iter=   120 ; resid.=  2.25797376609723E-12
(PID.TID 0000.0001)  cg2d: iter=   121 ; resid.=  1.80805741642506E-12
(PID.TID 0000.0001)  cg2d: iter=   122 ; resid.=  1.40410598297408E-12
(PID.TID 0000.0001)  cg2d: iter=   123 ; resid.=  9.96179138250820E-13
(PID.TID 0000.0001)  cg2d: iter=   124 ; resid.=  7.02207988026449E-13
(PID.TID 0000.0001)  cg2d: iter=   125 ; resid.=  5.74605833230748E-13
(PID.TID 0000.0001)  cg2d: iter=   126 ; resid.=  4.84104654093613E-13
(PID.TID 0000.0001)  cg2d: iter=   127 ; resid.=  3.73054156358003E-13
(PID.TID 0000.0001)  cg2d: iter=   128 ; resid.=  2.59454438624082E-13
(PID.TID 0000.0001)  cg2d: iter=   129 ; resid.=  1.77952372313965E-13
(PID.TID 0000.0001)  cg2d: iter=   130 ; resid.=  1.40280898166996E-13
(PID.TID 0000.0001)  cg2d: iter=   131 ; resid.=  1.12433617319278E-13
(PID.TID 0000.0001)  cg2d: iter=   132 ; resid.=  8.95140092765273E-14
DEBUG_STATS_RL:    cg2d_x (SOLVE_FOR_PRESSURE)  min= -1.63896704915711E+01
DEBUG_STATS_RL:    cg2d_x (SOLVE_FOR_PRESSURE)  max=  8.85968385997171E+00
DEBUG_STATS_RL:    cg2d_x (SOLVE_FOR_PRESSURE) mean= -1.64066354296932E+00
DEBUG_STATS_RL:    cg2d_x (SOLVE_FOR_PRESSURE) S.D.=  6.29387117390068E+00
(PID.TID 0000.0001)      cg2d_init_res =   4.10637972896418E-01
(PID.TID 0000.0001)      cg2d_iters(min,last) =      -1     132
(PID.TID 0000.0001)      cg2d_last_res =   8.95140092765273E-14
(PID.TID 0000.0001) // =======================================================
(PID.TID 0000.0001) // Begin MONITOR dynamic field statistics
(PID.TID 0000.0001) // =======================================================
(PID.TID 0000.0001) %MON time_tsnumber                =                    32
(PID.TID 0000.0001) %MON time_secondsf                =   2.7648000000000E+06
(PID.TID 0000.0001) %MON dynstat_eta_max              =   9.0312781447205E-01
(PID.TID 0000.0001) %MON dynstat_eta_min              =  -1.6707105495995E+00
(PID.TID 0000.0001) %MON dynstat_eta_mean             =  -2.3753255862620E-03
(PID.TID 0000.0001) %MON dynstat_eta_sd               =   5.5843967157800E-01
(PID.TID 0000.0001) %MON dynstat_eta_del2             =   2.1615019701043E-03
(PID.TID 0000.0001) %MON dynstat_uvel_max             =   8.6347145020190E-02
(PID.TID 0000.0001) %MON dynstat_uvel_min             =  -1.6525693823370E-01
(PID.TID 0000.0001) %MON dynstat_uvel_mean            =   1.0011833799343E-03
(PID.TID 0000.0001) %MON dynstat_uvel_sd              =   1.0472370756757E-02
(PID.TID 0000.0001) %MON dynstat_uvel_del2            =   7.3242951887399E-05
(PID.TID 0000.0001) %MON dynstat_vvel_max             =   1.0916805762939E-01
(PID.TID 0000.0001) %MON dynstat_vvel_min             =  -1.2024674752407E-01
(PID.TID 0000.0001) %MON dynstat_vvel_mean            =   1.6004580279490E-05
(PID.TID 0000.0001) %MON dynstat_vvel_sd              =   8.0622623881456E-03
(PID.TID 0000.0001) %MON dynstat_vvel_del2            =   7.1987434165507E-05
(PID.TID 0000.0001) %MON dynstat_wvel_max             =   9.9560923157155E-05
(PID.TID 0000.0001) %MON dynstat_wvel_min             =  -1.0164020093914E-04
(PID.TID 0000.0001) %MON dynstat_wvel_mean            =  -4.8381138149226E-23
(PID.TID 0000.0001) %MON dynstat_wvel_sd              =   1.2999803624548E-05
(PID.TID 0000.0001) %MON dynstat_wvel_del2            =   1.5973706978915E-07
(PID.TID 0000.0001) %MON dynstat_theta_max            =   3.0011076783880E+01
(PID.TID 0000.0001) %MON dynstat_theta_min            =  -2.0070524948253E+00
(PID.TID 0000.0001) %MON dynstat_theta_mean           =   3.6213466305252E+00
(PID.TID 0000.0001) %MON dynstat_theta_sd             =   4.4176889297376E+00
(PID.TID 0000.0001) %MON dynstat_theta_del2           =   4.8180759309629E-03
(PID.TID 0000.0001) %MON dynstat_salt_max             =   3.7453521914070E+01
(PID.TID 0000.0001) %MON dynstat_salt_min             =   2.9816395285375E+01
(PID.TID 0000.0001) %MON dynstat_salt_mean            =   3.4717980819466E+01
(PID.TID 0000.0001) %MON dynstat_salt_sd              =   2.9626099562056E-01
(PID.TID 0000.0001) %MON dynstat_salt_del2            =   9.9444688889180E-04
(PID.TID 0000.0001) %MON dynstat_sst_max              =   3.0011076783880E+01
(PID.TID 0000.0001) %MON dynstat_sst_min              =  -2.0070524948253E+00
(PID.TID 0000.0001) %MON dynstat_sst_mean             =   1.8752471677407E+01
(PID.TID 0000.0001) %MON dynstat_sst_sd               =   9.0480314910007E+00
(PID.TID 0000.0001) %MON dynstat_sst_del2             =   2.6674683691623E-02
(PID.TID 0000.0001) %MON dynstat_sss_max              =   3.7433082603529E+01
(PID.TID 0000.0001) %MON dynstat_sss_min              =   2.9816395285375E+01
(PID.TID 0000.0001) %MON dynstat_sss_mean             =   3.4845468283605E+01
(PID.TID 0000.0001) %MON dynstat_sss_sd               =   9.7563293384976E-01
(PID.TID 0000.0001) %MON dynstat_sss_del2             =   7.8548726923683E-03
(PID.TID 0000.0001) %MON forcing_qnet_max             =   3.8850822957357E+02
(PID.TID 0000.0001) %MON forcing_qnet_min             =  -1.7618723856608E+02
(PID.TID 0000.0001) %MON forcing_qnet_mean            =  -1.5153979322590E+01
(PID.TID 0000.0001) %MON forcing_qnet_sd              =   9.3101706459460E+01
(PID.TID 0000.0001) %MON forcing_qnet_del2            =   9.7073809157123E-01
(PID.TID 0000.0001) %MON forcing_qsw_max              =   0.0000000000000E+00
(PID.TID 0000.0001) %MON forcing_qsw_min              =   0.0000000000000E+00
(PID.TID 0000.0001) %MON forcing_qsw_mean             =   0.0000000000000E+00
(PID.TID 0000.0001) %MON forcing_qsw_sd               =   0.0000000000000E+00
(PID.TID 0000.0001) %MON forcing_qsw_del2             =   0.0000000000000E+00
(PID.TID 0000.0001) %MON forcing_empmr_max            =   7.7148803256932E-05
(PID.TID 0000.0001) %MON forcing_empmr_min            =  -7.7430264392812E-05
(PID.TID 0000.0001) %MON forcing_empmr_mean           =   9.3385541826996E-07
(PID.TID 0000.0001) %MON forcing_empmr_sd             =   2.8159654457023E-05
(PID.TID 0000.0001) %MON forcing_empmr_del2           =   3.5467644143970E-07
(PID.TID 0000.0001) %MON forcing_fu_max               =   2.8521531224251E-01
(PID.TID 0000.0001) %MON forcing_fu_min               =  -1.9249341785908E-01
(PID.TID 0000.0001) %MON forcing_fu_mean              =   1.6870538600070E-02
(PID.TID 0000.0001) %MON forcing_fu_sd                =   9.0164710524852E-02
(PID.TID 0000.0001) %MON forcing_fu_del2              =   6.6983433008820E-04
(PID.TID 0000.0001) %MON forcing_fv_max               =   1.8811390101910E-01
(PID.TID 0000.0001) %MON forcing_fv_min               =  -1.6227610409260E-01
(PID.TID 0000.0001) %MON forcing_fv_mean              =  -6.3030722469479E-03
(PID.TID 0000.0001) %MON forcing_fv_sd                =   4.4812198805099E-02
(PID.TID 0000.0001) %MON forcing_fv_del2              =   4.6773713492803E-04
(PID.TID 0000.0001) %MON trAdv_CFL_u_max              =   3.3275501703885E-02
(PID.TID 0000.0001) %MON trAdv_CFL_v_max              =   2.4833208216503E-02
(PID.TID 0000.0001) %MON trAdv_CFL_w_max              =   4.3666747650599E-02
(PID.TID 0000.0001) %MON advcfl_uvel_max              =   3.3089677535107E-02
(PID.TID 0000.0001) %MON advcfl_vvel_max              =   2.3362014517955E-02
(PID.TID 0000.0001) %MON advcfl_wvel_max              =   3.5051071740072E-02
(PID.TID 0000.0001) %MON advcfl_W_hf_max              =   4.2562015684374E-02
(PID.TID 0000.0001) %MON pe_b_mean                    =   3.9906311064913E-04
(PID.TID 0000.0001) %MON ke_max                       =   1.3716066314632E-02
(PID.TID 0000.0001) %MON ke_mean                      =   7.9461879321508E-05
(PID.TID 0000.0001) %MON ke_vol                       =   1.3226782436723E+18
(PID.TID 0000.0001) %MON vort_r_min                   =  -3.2393803961849E-07
(PID.TID 0000.0001) %MON vort_r_max                   =   4.0609386223706E-07
(PID.TID 0000.0001) %MON vort_a_mean                  =  -2.5274807050061E-05
(PID.TID 0000.0001) %MON vort_a_sd                    =   7.3604487950225E-05
(PID.TID 0000.0001) %MON vort_p_mean                  =  -3.1845655361769E-05
(PID.TID 0000.0001) %MON vort_p_sd                    =   1.3162529356136E-04
(PID.TID 0000.0001) %MON surfExpan_theta_mean         =   1.7500245043069E-07
(PID.TID 0000.0001) %MON surfExpan_salt_mean          =   4.8057218087403E-08
(PID.TID 0000.0001) // =======================================================
(PID.TID 0000.0001) // End MONITOR dynamic field statistics
(PID.TID 0000.0001) // =======================================================
 EXTERNAL_FIELDS_LOAD,        32 : iP,iLd,i0,i1=    1    2    1    2 ; Wght=  0.4333333333  0.5666666667
 EXTERNAL_FIELDS_LOAD: (fu0,1),fu,fv= -3.5633E-02 -1.4435E-02 -2.3621E-02 -3.4805E-02
 EXTERNAL_FIELDS_LOAD: SST,SSS,Q,E-P=  1.1393E-01  3.4548E+01  2.5144E+02  9.7896E-06
DEBUG_STATS_RL:          Uvel (THERMODYNAMICS)  min= -1.65256938233700E-01
DEBUG_STATS_RL:          Uvel (THERMODYNAMICS)  max=  8.63471450201896E-02
DEBUG_STATS_RL:          Uvel (THERMODYNAMICS) mean=  1.28712345168045E-03
DEBUG_STATS_RL:          Uvel (THERMODYNAMICS) S.D.=  1.68956261396365E-02
DEBUG_STATS_RL:          Vvel (THERMODYNAMICS)  min= -1.20246747524070E-01
DEBUG_STATS_RL:          Vvel (THERMODYNAMICS)  max=  1.09168057629389E-01
DEBUG_STATS_RL:          Vvel (THERMODYNAMICS) mean=  1.12770575108332E-04
DEBUG_STATS_RL:          Vvel (THERMODYNAMICS) S.D.=  1.26691181480066E-02
DEBUG_STATS_RL:          Wvel (THERMODYNAMICS)  min= -1.01640200939144E-04
DEBUG_STATS_RL:          Wvel (THERMODYNAMICS)  max=  9.95609231571548E-05
DEBUG_STATS_RL:          Wvel (THERMODYNAMICS) mean= -1.69164701188919E-07
DEBUG_STATS_RL:          Wvel (THERMODYNAMICS) S.D.=  1.17551728052872E-05
DEBUG_STATS_RL:         Theta (THERMODYNAMICS)  min= -2.00613567209329E+00
DEBUG_STATS_RL:         Theta (THERMODYNAMICS)  max=  3.00312038888398E+01
DEBUG_STATS_RL:         Theta (THERMODYNAMICS) mean=  3.21008009569309E+00
DEBUG_STATS_RL:         Theta (THERMODYNAMICS) S.D.=  5.85981732550001E+00
DEBUG_STATS_RL:          Salt (THERMODYNAMICS)  min= -1.56125112837913E-17
DEBUG_STATS_RL:          Salt (THERMODYNAMICS)  max=  3.74539646418139E+01
DEBUG_STATS_RL:          Salt (THERMODYNAMICS) mean=  1.88448727266288E+01
DEBUG_STATS_RL:          Salt (THERMODYNAMICS) S.D.=  1.73003856772526E+01
DEBUG_STATS_RL:         GtNm1 (THERMODYNAMICS)  min= -2.78367406165499E-06
DEBUG_STATS_RL:         GtNm1 (THERMODYNAMICS)  max=  2.39327392542491E-06
DEBUG_STATS_RL:         GtNm1 (THERMODYNAMICS) mean=  7.79518566783414E-09
DEBUG_STATS_RL:         GtNm1 (THERMODYNAMICS) S.D.=  2.06490024335754E-07
DEBUG_STATS_RL:         GsNm1 (THERMODYNAMICS)  min= -4.61112563045059E-07
DEBUG_STATS_RL:         GsNm1 (THERMODYNAMICS)  max=  3.12219322753744E-07
DEBUG_STATS_RL:         GsNm1 (THERMODYNAMICS) mean= -5.83291101219498E-10
DEBUG_STATS_RL:         GsNm1 (THERMODYNAMICS) S.D.=  1.79049368907821E-08
DEBUG_STATS_RL:                EtaN (DYNAMICS)  min= -1.67071054959950E+00
DEBUG_STATS_RL:                EtaN (DYNAMICS)  max=  9.03127814472050E-01
DEBUG_STATS_RL:                EtaN (DYNAMICS) mean= -1.67243990109004E-01
DEBUG_STATS_RL:                EtaN (DYNAMICS) S.D.=  6.41577081947064E-01
DEBUG_STATS_RL:                Uvel (DYNAMICS)  min= -1.65256938233700E-01
DEBUG_STATS_RL:                Uvel (DYNAMICS)  max=  8.63471450201896E-02
DEBUG_STATS_RL:                Uvel (DYNAMICS) mean=  1.28712345168045E-03
DEBUG_STATS_RL:                Uvel (DYNAMICS) S.D.=  1.68956261396365E-02
DEBUG_STATS_RL:                Vvel (DYNAMICS)  min= -1.20246747524070E-01
DEBUG_STATS_RL:                Vvel (DYNAMICS)  max=  1.09168057629389E-01
DEBUG_STATS_RL:                Vvel (DYNAMICS) mean=  1.12770575108332E-04
DEBUG_STATS_RL:                Vvel (DYNAMICS) S.D.=  1.26691181480066E-02
DEBUG_STATS_RL:                Wvel (DYNAMICS)  min= -1.01640200939144E-04
DEBUG_STATS_RL:                Wvel (DYNAMICS)  max=  9.95609231571548E-05
DEBUG_STATS_RL:                Wvel (DYNAMICS) mean= -1.69164701188919E-07
DEBUG_STATS_RL:                Wvel (DYNAMICS) S.D.=  1.17551728052872E-05
DEBUG_STATS_RL:               Theta (DYNAMICS)  min= -2.00613567209329E+00
DEBUG_STATS_RL:               Theta (DYNAMICS)  max=  3.00312038888398E+01
DEBUG_STATS_RL:               Theta (DYNAMICS) mean=  3.21008009569309E+00
DEBUG_STATS_RL:               Theta (DYNAMICS) S.D.=  5.85981732550001E+00
DEBUG_STATS_RL:                Salt (DYNAMICS)  min= -1.56125112837913E-17
DEBUG_STATS_RL:                Salt (DYNAMICS)  max=  3.74539646418139E+01
DEBUG_STATS_RL:                Salt (DYNAMICS) mean=  1.88448727266288E+01
DEBUG_STATS_RL:                Salt (DYNAMICS) S.D.=  1.73003856772526E+01
DEBUG_STATS_RL:                  Gu (DYNAMICS)  min= -1.65633297281170E-01
DEBUG_STATS_RL:                  Gu (DYNAMICS)  max=  8.74905935290370E-02
DEBUG_STATS_RL:                  Gu (DYNAMICS) mean=  1.23286891406872E-03
DEBUG_STATS_RL:                  Gu (DYNAMICS) S.D.=  1.76144632072869E-02
DEBUG_STATS_RL:                  Gv (DYNAMICS)  min= -1.21645899052151E-01
DEBUG_STATS_RL:                  Gv (DYNAMICS)  max=  1.01398798540488E-01
DEBUG_STATS_RL:                  Gv (DYNAMICS) mean=  2.14797210571276E-03
DEBUG_STATS_RL:                  Gv (DYNAMICS) S.D.=  1.33641404814955E-02
DEBUG_STATS_RL:               GuNm1 (DYNAMICS)  min= -7.88060187886374E-06
DEBUG_STATS_RL:               GuNm1 (DYNAMICS)  max=  7.71293057359608E-06
DEBUG_STATS_RL:               GuNm1 (DYNAMICS) mean= -1.78284631069017E-08
DEBUG_STATS_RL:               GuNm1 (DYNAMICS) S.D.=  1.19382761541692E-06
DEBUG_STATS_RL:               GvNm1 (DYNAMICS)  min= -1.07261126120588E-05
DEBUG_STATS_RL:               GvNm1 (DYNAMICS)  max=  1.64960264494117E-05
DEBUG_STATS_RL:               GvNm1 (DYNAMICS) mean=  7.57092778485950E-07
DEBUG_STATS_RL:               GvNm1 (DYNAMICS) S.D.=  2.64466183730585E-06
DEBUG_STATS_RL:               GtNm1 (DYNAMICS)  min= -2.78367406165499E-06
DEBUG_STATS_RL:               GtNm1 (DYNAMICS)  max=  2.39327392542491E-06
DEBUG_STATS_RL:               GtNm1 (DYNAMICS) mean=  7.79518566783414E-09
DEBUG_STATS_RL:               GtNm1 (DYNAMICS) S.D.=  2.06490024335754E-07
DEBUG_STATS_RL:               GsNm1 (DYNAMICS)  min= -4.61112563045059E-07
DEBUG_STATS_RL:               GsNm1 (DYNAMICS)  max=  3.12219322753744E-07
DEBUG_STATS_RL:               GsNm1 (DYNAMICS) mean= -5.83291101219498E-10
DEBUG_STATS_RL:               GsNm1 (DYNAMICS) S.D.=  1.79049368907821E-08
DEBUG_STATS_RL:    cg2d_b (SOLVE_FOR_PRESSURE)  min= -2.05669339603636E+04
DEBUG_STATS_RL:    cg2d_b (SOLVE_FOR_PRESSURE)  max=  1.90233631493750E+04
DEBUG_STATS_RL:    cg2d_b (SOLVE_FOR_PRESSURE) mean=  2.35134713487182E+00
DEBUG_STATS_RL:    cg2d_b (SOLVE_FOR_PRESSURE) S.D.=  3.77584026477246E+03
 cg2d: Sum(rhs),rhsMax =   2.64666023030957E-01  1.35089128895448E+00
(PID.TID 0000.0001)  cg2d: iter=     1 ; resid.=  1.02010348113845E-01
(PID.TID 0000.0001)  cg2d: iter=     2 ; resid.=  5.73107678436162E-02
(PID.TID 0000.0001)  cg2d: iter=     3 ; resid.=  4.82049382715239E-02
(PID.TID 0000.0001)  cg2d: iter=     4 ; resid.=  5.05522819274402E-02
(PID.TID 0000.0001)  cg2d: iter=     5 ; resid.=  5.19530056634486E-02
(PID.TID 0000.0001)  cg2d: iter=     6 ; resid.=  4.40453439041468E-02
(PID.TID 0000.0001)  cg2d: iter=     7 ; resid.=  3.64187551118574E-02
(PID.TID 0000.0001)  cg2d: iter=     8 ; resid.=  2.83596856686086E-02
(PID.TID 0000.0001)  cg2d: iter=     9 ; resid.=  2.23392960073240E-02
(PID.TID 0000.0001)  cg2d: iter=    10 ; resid.=  1.86997513233590E-02
(PID.TID 0000.0001)  cg2d: iter=    11 ; resid.=  1.62905777043379E-02
(PID.TID 0000.0001)  cg2d: iter=    12 ; resid.=  1.45725265492523E-02
(PID.TID 0000.0001)  cg2d: iter=    13 ; resid.=  1.33604878764360E-02
(PID.TID 0000.0001)  cg2d: iter=    14 ; resid.=  1.10545243091030E-02
(PID.TID 0000.0001)  cg2d: iter=    15 ; resid.=  8.80518756987989E-03
(PID.TID 0000.0001)  cg2d: iter=    16 ; resid.=  7.05088273415624E-03
(PID.TID 0000.0001)  cg2d: iter=    17 ; resid.=  6.39137051005669E-03
(PID.TID 0000.0001)  cg2d: iter=    18 ; resid.=  5.40866404892320E-03
(PID.TID 0000.0001)  cg2d: iter=    19 ; resid.=  4.17244158726954E-03
(PID.TID 0000.0001)  cg2d: iter=    20 ; resid.=  3.33843035116296E-03
(PID.TID 0000.0001)  cg2d: iter=    21 ; resid.=  2.60223661240222E-03
(PID.TID 0000.0001)  cg2d: iter=    22 ; resid.=  2.07000773457774E-03
(PID.TID 0000.0001)  cg2d: iter=    23 ; resid.=  1.71607613513549E-03
(PID.TID 0000.0001)  cg2d: iter=    24 ; resid.=  1.42209197287682E-03
(PID.TID 0000.0001)  cg2d: iter=    25 ; resid.=  1.18594169008882E-03
(PID.TID 0000.0001)  cg2d: iter=    26 ; resid.=  1.03324661206458E-03
(PID.TID 0000.0001)  cg2d: iter=    27 ; resid.=  9.23729497215857E-04
(PID.TID 0000.0001)  cg2d: iter=    28 ; resid.=  8.02559613528887E-04
(PID.TID 0000.0001)  cg2d: iter=    29 ; resid.=  6.57686000943485E-04
(PID.TID 0000.0001)  cg2d: iter=    30 ; resid.=  5.05811680987172E-04
(PID.TID 0000.0001)  cg2d: iter=    31 ; resid.=  4.09171289254295E-04
(PID.TID 0000.0001)  cg2d: iter=    32 ; resid.=  3.23119016388738E-04
(PID.TID 0000.0001)  cg2d: iter=    33 ; resid.=  2.62934522795268E-04
(PID.TID 0000.0001)  cg2d: iter=    34 ; resid.=  2.05443673025364E-04
(PID.TID 0000.0001)  cg2d: iter=    35 ; resid.=  1.70683829636292E-04
(PID.TID 0000.0001)  cg2d: iter=    36 ; resid.=  1.54792955318855E-04
(PID.TID 0000.0001)  cg2d: iter=    37 ; resid.=  1.43460433097498E-04
(PID.TID 0000.0001)  cg2d: iter=    38 ; resid.=  1.32460867364805E-04
(PID.TID 0000.0001)  cg2d: iter=    39 ; resid.=  1.11935464078469E-04
(PID.TID 0000.0001)  cg2d: iter=    40 ; resid.=  9.58276740409654E-05
(PID.TID 0000.0001)  cg2d: iter=    41 ; resid.=  8.13481520566103E-05
(PID.TID 0000.0001)  cg2d: iter=    42 ; resid.=  6.65242339387330E-05
(PID.TID 0000.0001)  cg2d: iter=    43 ; resid.=  5.65560988718978E-05
(PID.TID 0000.0001)  cg2d: iter=    44 ; resid.=  4.88141323166357E-05
(PID.TID 0000.0001)  cg2d: iter=    45 ; resid.=  4.26422568185546E-05
(PID.TID 0000.0001)  cg2d: iter=    46 ; resid.=  3.52579248105579E-05
(PID.TID 0000.0001)  cg2d: iter=    47 ; resid.=  2.73707539257090E-05
(PID.TID 0000.0001)  cg2d: iter=    48 ; resid.=  2.06449242142909E-05
(PID.TID 0000.0001)  cg2d: iter=    49 ; resid.=  1.51413924692845E-05
(PID.TID 0000.0001)  cg2d: iter=    50 ; resid.=  1.17261453341176E-05
(PID.TID 0000.0001)  cg2d: iter=    51 ; resid.=  9.54372431430187E-06
(PID.TID 0000.0001)  cg2d: iter=    52 ; resid.=  8.51948496882025E-06
(PID.TID 0000.0001)  cg2d: iter=    53 ; resid.=  7.96401055140653E-06
(PID.TID 0000.0001)  cg2d: iter=    54 ; resid.=  6.73368408538675E-06
(PID.TID 0000.0001)  cg2d: iter=    55 ; resid.=  5.41305821621389E-06
(PID.TID 0000.0001)  cg2d: iter=    56 ; resid.=  4.38039116152506E-06
(PID.TID 0000.0001)  cg2d: iter=    57 ; resid.=  3.39711279680156E-06
(PID.TID 0000.0001)  cg2d: iter=    58 ; resid.=  2.68950463364069E-06
(PID.TID 0000.0001)  cg2d: iter=    59 ; resid.=  2.13210259632485E-06
(PID.TID 0000.0001)  cg2d: iter=    60 ; resid.=  1.64896301238613E-06
(PID.TID 0000.0001)  cg2d: iter=    61 ; resid.=  1.34731042552096E-06
(PID.TID 0000.0001)  cg2d: iter=    62 ; resid.=  1.17254385786913E-06
(PID.TID 0000.0001)  cg2d: iter=    63 ; resid.=  8.76475165420864E-07
(PID.TID 0000.0001)  cg2d: iter=    64 ; resid.=  6.33136015137428E-07
(PID.TID 0000.0001)  cg2d: iter=    65 ; resid.=  4.86697065179580E-07
(PID.TID 0000.0001)  cg2d: iter=    66 ; resid.=  4.13421313917676E-07
(PID.TID 0000.0001)  cg2d: iter=    67 ; resid.=  3.29906564127578E-07
(PID.TID 0000.0001)  cg2d: iter=    68 ; resid.=  2.65358872456321E-07
(PID.TID 0000.0001)  cg2d: iter=    69 ; resid.=  1.96371879487421E-07
(PID.TID 0000.0001)  cg2d: iter=    70 ; resid.=  1.45891644362757E-07
(PID.TID 0000.0001)  cg2d: iter=    71 ; resid.=  1.13466394762392E-07
(PID.TID 0000.0001)  cg2d: iter=    72 ; resid.=  8.81458922065260E-08
(PID.TID 0000.0001)  cg2d: iter=    73 ; resid.=  6.82262042062646E-08
(PID.TID 0000.0001)  cg2d: iter=    74 ; resid.=  5.23900895939197E-08
(PID.TID 0000.0001)  cg2d: iter=    75 ; resid.=  4.20912247116510E-08
(PID.TID 0000.0001)  cg2d: iter=    76 ; resid.=  3.54562119047738E-08
(PID.TID 0000.0001)  cg2d: iter=    77 ; resid.=  2.98409269982254E-08
(PID.TID 0000.0001)  cg2d: iter=    78 ; resid.=  2.52567434404048E-08
(PID.TID 0000.0001)  cg2d: iter=    79 ; resid.=  2.30493020193260E-08
(PID.TID 0000.0001)  cg2d: iter=    80 ; resid.=  2.21226440421792E-08
(PID.TID 0000.0001)  cg2d: iter=    81 ; resid.=  1.92027142248867E-08
(PID.TID 0000.0001)  cg2d: iter=    82 ; resid.=  1.57730990057637E-08
(PID.TID 0000.0001)  cg2d: iter=    83 ; resid.=  1.24179739450625E-08
(PID.TID 0000.0001)  cg2d: iter=    84 ; resid.=  1.00231980476758E-08
(PID.TID 0000.0001)  cg2d: iter=    85 ; resid.=  7.56336183553858E-09
(PID.TID 0000.0001)  cg2d: iter=    86 ; resid.=  5.78121354300855E-09
(PID.TID 0000.0001)  cg2d: iter=    87 ; resid.=  4.55377839683723E-09
(PID.TID 0000.0001)  cg2d: iter=    88 ; resid.=  3.44845606031190E-09
(PID.TID 0000.0001)  cg2d: iter=    89 ; resid.=  2.80129542334354E-09
(PID.TID 0000.0001)  cg2d: iter=    90 ; resid.=  2.39940072866450E-09
(PID.TID 0000.0001)  cg2d: iter=    91 ; resid.=  2.05381846464375E-09
(PID.TID 0000.0001)  cg2d: iter=    92 ; resid.=  1.61826396392385E-09
(PID.TID 0000.0001)  cg2d: iter=    93 ; resid.=  1.22208786320974E-09
(PID.TID 0000.0001)  cg2d: iter=    94 ; resid.=  9.02577443299144E-10
(PID.TID 0000.0001)  cg2d: iter=    95 ; resid.=  7.00202477518362E-10
(PID.TID 0000.0001)  cg2d: iter=    96 ; resid.=  5.56296960915833E-10
(PID.TID 0000.0001)  cg2d: iter=    97 ; resid.=  4.52100176374456E-10
(PID.TID 0000.0001)  cg2d: iter=    98 ; resid.=  3.38693418708244E-10
(PID.TID 0000.0001)  cg2d: iter=    99 ; resid.=  2.47185337500168E-10
(PID.TID 0000.0001)  cg2d: iter=   100 ; resid.=  2.05903861200184E-10
(PID.TID 0000.0001)  cg2d: iter=   101 ; resid.=  1.91293118914044E-10
(PID.TID 0000.0001)  cg2d: iter=   102 ; resid.=  1.79246226792912E-10
(PID.TID 0000.0001)  cg2d: iter=   103 ; resid.=  1.49157882806491E-10
(PID.TID 0000.0001)  cg2d: iter=   104 ; resid.=  1.25706017420941E-10
(PID.TID 0000.0001)  cg2d: iter=   105 ; resid.=  1.03518151962852E-10
(PID.TID 0000.0001)  cg2d: iter=   106 ; resid.=  8.04530641219177E-11
(PID.TID 0000.0001)  cg2d: iter=   107 ; resid.=  5.97864168836197E-11
(PID.TID 0000.0001)  cg2d: iter=   108 ; resid.=  4.45571781561012E-11
(PID.TID 0000.0001)  cg2d: iter=   109 ; resid.=  3.49145920761390E-11
(PID.TID 0000.0001)  cg2d: iter=   110 ; resid.=  2.74238993470305E-11
(PID.TID 0000.0001)  cg2d: iter=   111 ; resid.=  2.05127266170924E-11
(PID.TID 0000.0001)  cg2d: iter=   112 ; resid.=  1.63919210963968E-11
(PID.TID 0000.0001)  cg2d: iter=   113 ; resid.=  1.32795862672621E-11
(PID.TID 0000.0001)  cg2d: iter=   114 ; resid.=  1.02668389795143E-11
(PID.TID 0000.0001)  cg2d: iter=   115 ; resid.=  8.19565139529230E-12
(PID.TID 0000.0001)  cg2d: iter=   116 ; resid.=  6.30597527856921E-12
(PID.TID 0000.0001)  cg2d: iter=   117 ; resid.=  4.93590184896075E-12
(PID.TID 0000.0001)  cg2d: iter=   118 ; resid.=  3.48852306158671E-12
(PID.TID 0000.0001)  cg2d: iter=   119 ; resid.=  2.64300620781173E-12
(PID.TID 0000.0001)  cg2d: iter=   120 ; resid.=  2.09484115781469E-12
(PID.TID 0000.0001)  cg2d: iter=   121 ; resid.=  1.71301044846615E-12
(PID.TID 0000.0001)  cg2d: iter=   122 ; resid.=  1.32934385364382E-12
(PID.TID 0000.0001)  cg2d: iter=   123 ; resid.=  9.33419210061315E-13
(PID.TID 0000.0001)  cg2d: iter=   124 ; resid.=  6.57117141518833E-13
(PID.TID 0000.0001)  cg2d: iter=   125 ; resid.=  5.38464301781350E-13
(PID.TID 0000.0001)  cg2d: iter=   126 ; resid.=  4.59907129425033E-13
(PID.TID 0000.0001)  cg2d: iter=   127 ; resid.=  3.50885699960165E-13
(PID.TID 0000.0001)  cg2d: iter=   128 ; resid.=  2.40257180624015E-13
(PID.TID 0000.0001)  cg2d: iter=   129 ; resid.=  1.62125369054041E-13
(PID.TID 0000.0001)  cg2d: iter=   130 ; resid.=  1.26802103383779E-13
(PID.TID 0000.0001)  cg2d: iter=   131 ; resid.=  1.01179857322589E-13
(PID.TID 0000.0001)  cg2d: iter=   132 ; resid.=  8.25768646468349E-14
DEBUG_STATS_RL:    cg2d_x (SOLVE_FOR_PRESSURE)  min= -1.62828679837415E+01
DEBUG_STATS_RL:    cg2d_x (SOLVE_FOR_PRESSURE)  max=  8.82091800932984E+00
DEBUG_STATS_RL:    cg2d_x (SOLVE_FOR_PRESSURE) mean= -1.64507717119423E+00
DEBUG_STATS_RL:    cg2d_x (SOLVE_FOR_PRESSURE) S.D.=  6.29419993037112E+00
(PID.TID 0000.0001)      cg2d_init_res =   4.09428664901018E-01
(PID.TID 0000.0001)      cg2d_iters(min,last) =      -1     132
(PID.TID 0000.0001)      cg2d_last_res =   8.25768646468349E-14
(PID.TID 0000.0001) // =======================================================
(PID.TID 0000.0001) // Begin MONITOR dynamic field statistics
(PID.TID 0000.0001) // =======================================================
(PID.TID 0000.0001) %MON time_tsnumber                =                    33
(PID.TID 0000.0001) %MON time_secondsf                =   2.8512000000000E+06
(PID.TID 0000.0001) %MON dynstat_eta_max              =   8.9917614773995E-01
(PID.TID 0000.0001) %MON dynstat_eta_min              =  -1.6598234438064E+00
(PID.TID 0000.0001) %MON dynstat_eta_mean             =  -2.4533391778194E-03
(PID.TID 0000.0001) %MON dynstat_eta_sd               =   5.5793879208412E-01
(PID.TID 0000.0001) %MON dynstat_eta_del2             =   2.1648663331081E-03
(PID.TID 0000.0001) %MON dynstat_uvel_max             =   9.3444099937451E-02
(PID.TID 0000.0001) %MON dynstat_uvel_min             =  -1.6378765225286E-01
(PID.TID 0000.0001) %MON dynstat_uvel_mean            =   1.0102855641194E-03
(PID.TID 0000.0001) %MON dynstat_uvel_sd              =   1.0646534254019E-02
(PID.TID 0000.0001) %MON dynstat_uvel_del2            =   7.4002786479403E-05
(PID.TID 0000.0001) %MON dynstat_vvel_max             =   1.0748764328074E-01
(PID.TID 0000.0001) %MON dynstat_vvel_min             =  -1.1458781984159E-01
(PID.TID 0000.0001) %MON dynstat_vvel_mean            =   1.2511715906476E-05
(PID.TID 0000.0001) %MON dynstat_vvel_sd              =   8.1087945914645E-03
(PID.TID 0000.0001) %MON dynstat_vvel_del2            =   7.2617694959225E-05
(PID.TID 0000.0001) %MON dynstat_wvel_max             =   9.6495744028440E-05
(PID.TID 0000.0001) %MON dynstat_wvel_min             =  -1.0784508020200E-04
(PID.TID 0000.0001) %MON dynstat_wvel_mean            =   2.0742468625359E-22
(PID.TID 0000.0001) %MON dynstat_wvel_sd              =   1.3240661572378E-05
(PID.TID 0000.0001) %MON dynstat_wvel_del2            =   1.6087757486134E-07
(PID.TID 0000.0001) %MON dynstat_theta_max            =   3.0031203888840E+01
(PID.TID 0000.0001) %MON dynstat_theta_min            =  -2.0061356720933E+00
(PID.TID 0000.0001) %MON dynstat_theta_mean           =   3.6214263930063E+00
(PID.TID 0000.0001) %MON dynstat_theta_sd             =   4.4178697698077E+00
(PID.TID 0000.0001) %MON dynstat_theta_del2           =   4.8080910847447E-03
(PID.TID 0000.0001) %MON dynstat_salt_max             =   3.7453964641814E+01
(PID.TID 0000.0001) %MON dynstat_salt_min             =   2.9817627195627E+01
(PID.TID 0000.0001) %MON dynstat_salt_mean            =   3.4717980698950E+01
(PID.TID 0000.0001) %MON dynstat_salt_sd              =   2.9626691787290E-01
(PID.TID 0000.0001) %MON dynstat_salt_del2            =   9.9278044942026E-04
(PID.TID 0000.0001) %MON dynstat_sst_max              =   3.0031203888840E+01
(PID.TID 0000.0001) %MON dynstat_sst_min              =  -2.0061356720933E+00
(PID.TID 0000.0001) %MON dynstat_sst_mean             =   1.8761402014653E+01
(PID.TID 0000.0001) %MON dynstat_sst_sd               =   9.0441755758210E+00
(PID.TID 0000.0001) %MON dynstat_sst_del2             =   2.6691778862112E-02
(PID.TID 0000.0001) %MON dynstat_sss_max              =   3.7432896757795E+01
(PID.TID 0000.0001) %MON dynstat_sss_min              =   2.9817627195627E+01
(PID.TID 0000.0001) %MON dynstat_sss_mean             =   3.4845065132352E+01
(PID.TID 0000.0001) %MON dynstat_sss_sd               =   9.7582941489448E-01
(PID.TID 0000.0001) %MON dynstat_sss_del2             =   7.8491807042172E-03
(PID.TID 0000.0001) %MON forcing_qnet_max             =   3.8518914286296E+02
(PID.TID 0000.0001) %MON forcing_qnet_min             =  -1.7594771931966E+02
(PID.TID 0000.0001) %MON forcing_qnet_mean            =  -1.5069070155187E+01
(PID.TID 0000.0001) %MON forcing_qnet_sd              =   9.2094283864091E+01
(PID.TID 0000.0001) %MON forcing_qnet_del2            =   9.6837633456498E-01
(PID.TID 0000.0001) %MON forcing_qsw_max              =   0.0000000000000E+00
(PID.TID 0000.0001) %MON forcing_qsw_min              =   0.0000000000000E+00
(PID.TID 0000.0001) %MON forcing_qsw_mean             =   0.0000000000000E+00
(PID.TID 0000.0001) %MON forcing_qsw_sd               =   0.0000000000000E+00
(PID.TID 0000.0001) %MON forcing_qsw_del2             =   0.0000000000000E+00
(PID.TID 0000.0001) %MON forcing_empmr_max            =   7.6834713524931E-05
(PID.TID 0000.0001) %MON forcing_empmr_min            =  -7.7509908654368E-05
(PID.TID 0000.0001) %MON forcing_empmr_mean           =   9.3453781552993E-07
(PID.TID 0000.0001) %MON forcing_empmr_sd             =   2.8134918761187E-05
(PID.TID 0000.0001) %MON forcing_empmr_del2           =   3.5437715861302E-07
(PID.TID 0000.0001) %MON forcing_fu_max               =   2.8660247027874E-01
(PID.TID 0000.0001) %MON forcing_fu_min               =  -1.9415334165096E-01
(PID.TID 0000.0001) %MON forcing_fu_mean              =   1.6924838815539E-02
(PID.TID 0000.0001) %MON forcing_fu_sd                =   9.0257397064876E-02
(PID.TID 0000.0001) %MON forcing_fu_del2              =   6.7159620997325E-04
(PID.TID 0000.0001) %MON forcing_fv_max               =   1.8701238036156E-01
(PID.TID 0000.0001) %MON forcing_fv_min               =  -1.6128480434418E-01
(PID.TID 0000.0001) %MON forcing_fv_mean              =  -6.3683331536630E-03
(PID.TID 0000.0001) %MON forcing_fv_sd                =   4.4725198845894E-02
(PID.TID 0000.0001) %MON forcing_fv_del2              =   4.7006525107410E-04
(PID.TID 0000.0001) %MON trAdv_CFL_u_max              =   3.3096398285276E-02
(PID.TID 0000.0001) %MON trAdv_CFL_v_max              =   2.3902578811828E-02
(PID.TID 0000.0001) %MON trAdv_CFL_w_max              =   4.2562015684374E-02
(PID.TID 0000.0001) %MON advcfl_uvel_max              =   3.4259350772861E-02
(PID.TID 0000.0001) %MON advcfl_vvel_max              =   2.2262575627538E-02
(PID.TID 0000.0001) %MON advcfl_wvel_max              =   3.3974487187922E-02
(PID.TID 0000.0001) %MON advcfl_W_hf_max              =   4.1254734442477E-02
(PID.TID 0000.0001) %MON pe_b_mean                    =   3.9834806588892E-04
(PID.TID 0000.0001) %MON ke_max                       =   1.3789546258044E-02
(PID.TID 0000.0001) %MON ke_mean                      =   8.1479007256548E-05
(PID.TID 0000.0001) %MON ke_vol                       =   1.3226782436723E+18
(PID.TID 0000.0001) %MON vort_r_min                   =  -3.4122915487582E-07
(PID.TID 0000.0001) %MON vort_r_max                   =   4.1025293401170E-07
(PID.TID 0000.0001) %MON vort_a_mean                  =  -2.5274807053112E-05
(PID.TID 0000.0001) %MON vort_a_sd                    =   7.3604488806483E-05
(PID.TID 0000.0001) %MON vort_p_mean                  =  -3.1845655365614E-05
(PID.TID 0000.0001) %MON vort_p_sd                    =   1.3162521112925E-04
(PID.TID 0000.0001) %MON surfExpan_theta_mean         =   1.8566774504968E-07
(PID.TID 0000.0001) %MON surfExpan_salt_mean          =   4.9814241367001E-08
(PID.TID 0000.0001) // =======================================================
(PID.TID 0000.0001) // End MONITOR dynamic field statistics
(PID.TID 0000.0001) // =======================================================
 EXTERNAL_FIELDS_LOAD,        33 : iP,iLd,i0,i1=    1    2    1    2 ; Wght=  0.4000000000  0.6000000000
 EXTERNAL_FIELDS_LOAD: (fu0,1),fu,fv= -3.5633E-02 -1.4435E-02 -2.2914E-02 -3.3484E-02
 EXTERNAL_FIELDS_LOAD: SST,SSS,Q,E-P=  6.4256E-02  3.4538E+01  2.5060E+02  9.6810E-06
DEBUG_STATS_RL:          Uvel (THERMODYNAMICS)  min= -1.63787652252857E-01
DEBUG_STATS_RL:          Uvel (THERMODYNAMICS)  max=  9.34440999374507E-02
DEBUG_STATS_RL:          Uvel (THERMODYNAMICS) mean=  1.38766079479517E-03
DEBUG_STATS_RL:          Uvel (THERMODYNAMICS) S.D.=  1.73196849540194E-02
DEBUG_STATS_RL:          Vvel (THERMODYNAMICS)  min= -1.14587819841589E-01
DEBUG_STATS_RL:          Vvel (THERMODYNAMICS)  max=  1.07487643280741E-01
DEBUG_STATS_RL:          Vvel (THERMODYNAMICS) mean= -6.96063980160415E-05
DEBUG_STATS_RL:          Vvel (THERMODYNAMICS) S.D.=  1.26557242516888E-02
DEBUG_STATS_RL:          Wvel (THERMODYNAMICS)  min= -1.07845080202000E-04
DEBUG_STATS_RL:          Wvel (THERMODYNAMICS)  max=  9.64957440284404E-05
DEBUG_STATS_RL:          Wvel (THERMODYNAMICS) mean= -2.39453701433719E-07
DEBUG_STATS_RL:          Wvel (THERMODYNAMICS) S.D.=  1.19991544469852E-05
DEBUG_STATS_RL:         Theta (THERMODYNAMICS)  min= -2.00518598671605E+00
DEBUG_STATS_RL:         Theta (THERMODYNAMICS)  max=  3.00521079335272E+01
DEBUG_STATS_RL:         Theta (THERMODYNAMICS) mean=  3.21053630509671E+00
DEBUG_STATS_RL:         Theta (THERMODYNAMICS) S.D.=  5.86025090490118E+00
DEBUG_STATS_RL:          Salt (THERMODYNAMICS)  min= -1.56125112837913E-17
DEBUG_STATS_RL:          Salt (THERMODYNAMICS)  max=  3.74543026284886E+01
DEBUG_STATS_RL:          Salt (THERMODYNAMICS) mean=  1.88448532675601E+01
DEBUG_STATS_RL:          Salt (THERMODYNAMICS) S.D.=  1.73003685603547E+01
DEBUG_STATS_RL:         GtNm1 (THERMODYNAMICS)  min= -3.57164474487989E-06
DEBUG_STATS_RL:         GtNm1 (THERMODYNAMICS)  max=  2.31020618322364E-06
DEBUG_STATS_RL:         GtNm1 (THERMODYNAMICS) mean=  9.16488893049078E-09
DEBUG_STATS_RL:         GtNm1 (THERMODYNAMICS) S.D.=  2.04371537432392E-07
DEBUG_STATS_RL:         GsNm1 (THERMODYNAMICS)  min= -4.69295338522872E-07
DEBUG_STATS_RL:         GsNm1 (THERMODYNAMICS)  max=  3.13375169682347E-07
DEBUG_STATS_RL:         GsNm1 (THERMODYNAMICS) mean= -5.17411008404357E-10
DEBUG_STATS_RL:         GsNm1 (THERMODYNAMICS) S.D.=  1.77053803782114E-08
DEBUG_STATS_RL:                EtaN (DYNAMICS)  min= -1.65982344380645E+00
DEBUG_STATS_RL:                EtaN (DYNAMICS)  max=  8.99176147739954E-01
DEBUG_STATS_RL:                EtaN (DYNAMICS) mean= -1.67693901243041E-01
DEBUG_STATS_RL:                EtaN (DYNAMICS) S.D.=  6.41610594329371E-01
DEBUG_STATS_RL:                Uvel (DYNAMICS)  min= -1.63787652252857E-01
DEBUG_STATS_RL:                Uvel (DYNAMICS)  max=  9.34440999374507E-02
DEBUG_STATS_RL:                Uvel (DYNAMICS) mean=  1.38766079479517E-03
DEBUG_STATS_RL:                Uvel (DYNAMICS) S.D.=  1.73196849540194E-02
DEBUG_STATS_RL:                Vvel (DYNAMICS)  min= -1.14587819841589E-01
DEBUG_STATS_RL:                Vvel (DYNAMICS)  max=  1.07487643280741E-01
DEBUG_STATS_RL:                Vvel (DYNAMICS) mean= -6.96063980160415E-05
DEBUG_STATS_RL:                Vvel (DYNAMICS) S.D.=  1.26557242516888E-02
DEBUG_STATS_RL:                Wvel (DYNAMICS)  min= -1.07845080202000E-04
DEBUG_STATS_RL:                Wvel (DYNAMICS)  max=  9.64957440284404E-05
DEBUG_STATS_RL:                Wvel (DYNAMICS) mean= -2.39453701433719E-07
DEBUG_STATS_RL:                Wvel (DYNAMICS) S.D.=  1.19991544469852E-05
DEBUG_STATS_RL:               Theta (DYNAMICS)  min= -2.00518598671605E+00
DEBUG_STATS_RL:               Theta (DYNAMICS)  max=  3.00521079335272E+01
DEBUG_STATS_RL:               Theta (DYNAMICS) mean=  3.21053630509671E+00
DEBUG_STATS_RL:               Theta (DYNAMICS) S.D.=  5.86025090490118E+00
DEBUG_STATS_RL:                Salt (DYNAMICS)  min= -1.56125112837913E-17
DEBUG_STATS_RL:                Salt (DYNAMICS)  max=  3.74543026284886E+01
DEBUG_STATS_RL:                Salt (DYNAMICS) mean=  1.88448532675601E+01
DEBUG_STATS_RL:                Salt (DYNAMICS) S.D.=  1.73003685603547E+01
DEBUG_STATS_RL:                  Gu (DYNAMICS)  min= -1.63639810761449E-01
DEBUG_STATS_RL:                  Gu (DYNAMICS)  max=  9.79404925355719E-02
DEBUG_STATS_RL:                  Gu (DYNAMICS) mean=  1.40115176585525E-03
DEBUG_STATS_RL:                  Gu (DYNAMICS) S.D.=  1.81619364054921E-02
DEBUG_STATS_RL:                  Gv (DYNAMICS)  min= -1.15186793482902E-01
DEBUG_STATS_RL:                  Gv (DYNAMICS)  max=  9.95657090500828E-02
DEBUG_STATS_RL:                  Gv (DYNAMICS) mean=  2.01817447016443E-03
DEBUG_STATS_RL:                  Gv (DYNAMICS) S.D.=  1.32373297047912E-02
DEBUG_STATS_RL:               GuNm1 (DYNAMICS)  min= -7.88814128518417E-06
DEBUG_STATS_RL:               GuNm1 (DYNAMICS)  max=  7.78797628147921E-06
DEBUG_STATS_RL:               GuNm1 (DYNAMICS) mean= -1.83523025579139E-08
DEBUG_STATS_RL:               GuNm1 (DYNAMICS) S.D.=  1.19056497869353E-06
DEBUG_STATS_RL:               GvNm1 (DYNAMICS)  min= -1.06674359960091E-05
DEBUG_STATS_RL:               GvNm1 (DYNAMICS)  max=  1.64606119918551E-05
DEBUG_STATS_RL:               GvNm1 (DYNAMICS) mean=  7.55885848941988E-07
DEBUG_STATS_RL:               GvNm1 (DYNAMICS) S.D.=  2.63978772267816E-06
DEBUG_STATS_RL:               GtNm1 (DYNAMICS)  min= -3.57164474487989E-06
DEBUG_STATS_RL:               GtNm1 (DYNAMICS)  max=  2.31020618322364E-06
DEBUG_STATS_RL:               GtNm1 (DYNAMICS) mean=  9.16488893049078E-09
DEBUG_STATS_RL:               GtNm1 (DYNAMICS) S.D.=  2.04371537432392E-07
DEBUG_STATS_RL:               GsNm1 (DYNAMICS)  min= -4.69295338522872E-07
DEBUG_STATS_RL:               GsNm1 (DYNAMICS)  max=  3.13375169682347E-07
DEBUG_STATS_RL:               GsNm1 (DYNAMICS) mean= -5.17411008404357E-10
DEBUG_STATS_RL:               GsNm1 (DYNAMICS) S.D.=  1.77053803782114E-08
DEBUG_STATS_RL:    cg2d_b (SOLVE_FOR_PRESSURE)  min= -2.02602286735702E+04
DEBUG_STATS_RL:    cg2d_b (SOLVE_FOR_PRESSURE)  max=  1.90658217480235E+04
DEBUG_STATS_RL:    cg2d_b (SOLVE_FOR_PRESSURE) mean=  2.42617208444663E+00
DEBUG_STATS_RL:    cg2d_b (SOLVE_FOR_PRESSURE) S.D.=  3.75810760471059E+03
 cg2d: Sum(rhs),rhsMax =   2.77222358443635E-01  1.33074606453727E+00
(PID.TID 0000.0001)  cg2d: iter=     1 ; resid.=  1.00558594504154E-01
(PID.TID 0000.0001)  cg2d: iter=     2 ; resid.=  5.61980252196194E-02
(PID.TID 0000.0001)  cg2d: iter=     3 ; resid.=  4.63913470742214E-02
(PID.TID 0000.0001)  cg2d: iter=     4 ; resid.=  4.89617860101341E-02
(PID.TID 0000.0001)  cg2d: iter=     5 ; resid.=  5.01837983532194E-02
(PID.TID 0000.0001)  cg2d: iter=     6 ; resid.=  4.28837410217709E-02
(PID.TID 0000.0001)  cg2d: iter=     7 ; resid.=  3.51160180217933E-02
(PID.TID 0000.0001)  cg2d: iter=     8 ; resid.=  2.75332513280984E-02
(PID.TID 0000.0001)  cg2d: iter=     9 ; resid.=  2.16322701312541E-02
(PID.TID 0000.0001)  cg2d: iter=    10 ; resid.=  1.79450155956730E-02
(PID.TID 0000.0001)  cg2d: iter=    11 ; resid.=  1.55882238317634E-02
(PID.TID 0000.0001)  cg2d: iter=    12 ; resid.=  1.37494895867953E-02
(PID.TID 0000.0001)  cg2d: iter=    13 ; resid.=  1.24035016466146E-02
(PID.TID 0000.0001)  cg2d: iter=    14 ; resid.=  1.04081699399912E-02
(PID.TID 0000.0001)  cg2d: iter=    15 ; resid.=  8.31578442199075E-03
(PID.TID 0000.0001)  cg2d: iter=    16 ; resid.=  6.72675449209217E-03
(PID.TID 0000.0001)  cg2d: iter=    17 ; resid.=  6.15451524971590E-03
(PID.TID 0000.0001)  cg2d: iter=    18 ; resid.=  5.21227019348440E-03
(PID.TID 0000.0001)  cg2d: iter=    19 ; resid.=  4.02434382044333E-03
(PID.TID 0000.0001)  cg2d: iter=    20 ; resid.=  3.19298586511888E-03
(PID.TID 0000.0001)  cg2d: iter=    21 ; resid.=  2.48463042537052E-03
(PID.TID 0000.0001)  cg2d: iter=    22 ; resid.=  2.00802288618408E-03
(PID.TID 0000.0001)  cg2d: iter=    23 ; resid.=  1.71074490194550E-03
(PID.TID 0000.0001)  cg2d: iter=    24 ; resid.=  1.44627951607690E-03
(PID.TID 0000.0001)  cg2d: iter=    25 ; resid.=  1.21662613142108E-03
(PID.TID 0000.0001)  cg2d: iter=    26 ; resid.=  1.04420137830680E-03
(PID.TID 0000.0001)  cg2d: iter=    27 ; resid.=  9.17062362156169E-04
(PID.TID 0000.0001)  cg2d: iter=    28 ; resid.=  7.93828430681233E-04
(PID.TID 0000.0001)  cg2d: iter=    29 ; resid.=  6.41301843774595E-04
(PID.TID 0000.0001)  cg2d: iter=    30 ; resid.=  4.89337361211533E-04
(PID.TID 0000.0001)  cg2d: iter=    31 ; resid.=  3.98278179762783E-04
(PID.TID 0000.0001)  cg2d: iter=    32 ; resid.=  3.17181309840680E-04
(PID.TID 0000.0001)  cg2d: iter=    33 ; resid.=  2.57612058460993E-04
(PID.TID 0000.0001)  cg2d: iter=    34 ; resid.=  1.97082377904683E-04
(PID.TID 0000.0001)  cg2d: iter=    35 ; resid.=  1.61391751776635E-04
(PID.TID 0000.0001)  cg2d: iter=    36 ; resid.=  1.46997671702429E-04
(PID.TID 0000.0001)  cg2d: iter=    37 ; resid.=  1.38337613513801E-04
(PID.TID 0000.0001)  cg2d: iter=    38 ; resid.=  1.28082658167617E-04
(PID.TID 0000.0001)  cg2d: iter=    39 ; resid.=  1.07953035261222E-04
(PID.TID 0000.0001)  cg2d: iter=    40 ; resid.=  9.18653674492041E-05
(PID.TID 0000.0001)  cg2d: iter=    41 ; resid.=  7.73581338710902E-05
(PID.TID 0000.0001)  cg2d: iter=    42 ; resid.=  6.34078399994668E-05
(PID.TID 0000.0001)  cg2d: iter=    43 ; resid.=  5.46259578310370E-05
(PID.TID 0000.0001)  cg2d: iter=    44 ; resid.=  4.77419472748837E-05
(PID.TID 0000.0001)  cg2d: iter=    45 ; resid.=  4.12114604106487E-05
(PID.TID 0000.0001)  cg2d: iter=    46 ; resid.=  3.38103306522739E-05
(PID.TID 0000.0001)  cg2d: iter=    47 ; resid.=  2.60123814681173E-05
(PID.TID 0000.0001)  cg2d: iter=    48 ; resid.=  1.97850651264281E-05
(PID.TID 0000.0001)  cg2d: iter=    49 ; resid.=  1.47457345847645E-05
(PID.TID 0000.0001)  cg2d: iter=    50 ; resid.=  1.15528791935366E-05
(PID.TID 0000.0001)  cg2d: iter=    51 ; resid.=  9.51177275869414E-06
(PID.TID 0000.0001)  cg2d: iter=    52 ; resid.=  8.75388277861236E-06
(PID.TID 0000.0001)  cg2d: iter=    53 ; resid.=  8.28025582515935E-06
(PID.TID 0000.0001)  cg2d: iter=    54 ; resid.=  6.87891533960597E-06
(PID.TID 0000.0001)  cg2d: iter=    55 ; resid.=  5.49219554461990E-06
(PID.TID 0000.0001)  cg2d: iter=    56 ; resid.=  4.45043151944288E-06
(PID.TID 0000.0001)  cg2d: iter=    57 ; resid.=  3.50683390268064E-06
(PID.TID 0000.0001)  cg2d: iter=    58 ; resid.=  2.80058885256463E-06
(PID.TID 0000.0001)  cg2d: iter=    59 ; resid.=  2.22248852451073E-06
(PID.TID 0000.0001)  cg2d: iter=    60 ; resid.=  1.66081442149786E-06
(PID.TID 0000.0001)  cg2d: iter=    61 ; resid.=  1.29144004960140E-06
(PID.TID 0000.0001)  cg2d: iter=    62 ; resid.=  1.07685274728475E-06
(PID.TID 0000.0001)  cg2d: iter=    63 ; resid.=  8.00087179239702E-07
(PID.TID 0000.0001)  cg2d: iter=    64 ; resid.=  5.90720537270324E-07
(PID.TID 0000.0001)  cg2d: iter=    65 ; resid.=  4.57749212163675E-07
(PID.TID 0000.0001)  cg2d: iter=    66 ; resid.=  3.92485781883772E-07
(PID.TID 0000.0001)  cg2d: iter=    67 ; resid.=  3.18792028277061E-07
(PID.TID 0000.0001)  cg2d: iter=    68 ; resid.=  2.58641862421665E-07
(PID.TID 0000.0001)  cg2d: iter=    69 ; resid.=  1.90873251231311E-07
(PID.TID 0000.0001)  cg2d: iter=    70 ; resid.=  1.41159309816499E-07
(PID.TID 0000.0001)  cg2d: iter=    71 ; resid.=  1.07866705952172E-07
(PID.TID 0000.0001)  cg2d: iter=    72 ; resid.=  8.39355038955403E-08
(PID.TID 0000.0001)  cg2d: iter=    73 ; resid.=  6.75394006005870E-08
(PID.TID 0000.0001)  cg2d: iter=    74 ; resid.=  5.51537264824063E-08
(PID.TID 0000.0001)  cg2d: iter=    75 ; resid.=  4.83109932367798E-08
(PID.TID 0000.0001)  cg2d: iter=    76 ; resid.=  4.29476458367982E-08
(PID.TID 0000.0001)  cg2d: iter=    77 ; resid.=  3.65882377203852E-08
(PID.TID 0000.0001)  cg2d: iter=    78 ; resid.=  3.08600536668918E-08
(PID.TID 0000.0001)  cg2d: iter=    79 ; resid.=  2.79825586408024E-08
(PID.TID 0000.0001)  cg2d: iter=    80 ; resid.=  2.64733862056390E-08
(PID.TID 0000.0001)  cg2d: iter=    81 ; resid.=  2.22541044434238E-08
(PID.TID 0000.0001)  cg2d: iter=    82 ; resid.=  1.75716117112990E-08
(PID.TID 0000.0001)  cg2d: iter=    83 ; resid.=  1.32135745963010E-08
(PID.TID 0000.0001)  cg2d: iter=    84 ; resid.=  1.03780598204981E-08
(PID.TID 0000.0001)  cg2d: iter=    85 ; resid.=  7.62523661623196E-09
(PID.TID 0000.0001)  cg2d: iter=    86 ; resid.=  5.56932449489577E-09
(PID.TID 0000.0001)  cg2d: iter=    87 ; resid.=  4.27041260691328E-09
(PID.TID 0000.0001)  cg2d: iter=    88 ; resid.=  3.18511095996686E-09
(PID.TID 0000.0001)  cg2d: iter=    89 ; resid.=  2.51052005004764E-09
(PID.TID 0000.0001)  cg2d: iter=    90 ; resid.=  2.15194815145445E-09
(PID.TID 0000.0001)  cg2d: iter=    91 ; resid.=  1.88576221207991E-09
(PID.TID 0000.0001)  cg2d: iter=    92 ; resid.=  1.51234720994701E-09
(PID.TID 0000.0001)  cg2d: iter=    93 ; resid.=  1.16590034890686E-09
(PID.TID 0000.0001)  cg2d: iter=    94 ; resid.=  8.96771536284594E-10
(PID.TID 0000.0001)  cg2d: iter=    95 ; resid.=  7.25774976911523E-10
(PID.TID 0000.0001)  cg2d: iter=    96 ; resid.=  6.01491926258136E-10
(PID.TID 0000.0001)  cg2d: iter=    97 ; resid.=  5.04885103723181E-10
(PID.TID 0000.0001)  cg2d: iter=    98 ; resid.=  3.90028816475836E-10
(PID.TID 0000.0001)  cg2d: iter=    99 ; resid.=  2.88768743409235E-10
(PID.TID 0000.0001)  cg2d: iter=   100 ; resid.=  2.40340776500177E-10
(PID.TID 0000.0001)  cg2d: iter=   101 ; resid.=  2.20221597129024E-10
(PID.TID 0000.0001)  cg2d: iter=   102 ; resid.=  2.07273154726606E-10
(PID.TID 0000.0001)  cg2d: iter=   103 ; resid.=  1.69312065944989E-10
(PID.TID 0000.0001)  cg2d: iter=   104 ; resid.=  1.35994951968556E-10
(PID.TID 0000.0001)  cg2d: iter=   105 ; resid.=  1.08576617705748E-10
(PID.TID 0000.0001)  cg2d: iter=   106 ; resid.=  8.32645728330297E-11
(PID.TID 0000.0001)  cg2d: iter=   107 ; resid.=  6.12730359967535E-11
(PID.TID 0000.0001)  cg2d: iter=   108 ; resid.=  4.55444675308340E-11
(PID.TID 0000.0001)  cg2d: iter=   109 ; resid.=  3.44134258531854E-11
(PID.TID 0000.0001)  cg2d: iter=   110 ; resid.=  2.57708953138474E-11
(PID.TID 0000.0001)  cg2d: iter=   111 ; resid.=  1.85912372824022E-11
(PID.TID 0000.0001)  cg2d: iter=   112 ; resid.=  1.43044120688045E-11
(PID.TID 0000.0001)  cg2d: iter=   113 ; resid.=  1.11545471211713E-11
(PID.TID 0000.0001)  cg2d: iter=   114 ; resid.=  8.40121830165086E-12
(PID.TID 0000.0001)  cg2d: iter=   115 ; resid.=  6.65540487814747E-12
(PID.TID 0000.0001)  cg2d: iter=   116 ; resid.=  5.05231002240800E-12
(PID.TID 0000.0001)  cg2d: iter=   117 ; resid.=  3.95485729131569E-12
(PID.TID 0000.0001)  cg2d: iter=   118 ; resid.=  2.76978549773074E-12
(PID.TID 0000.0001)  cg2d: iter=   119 ; resid.=  2.06504524107288E-12
(PID.TID 0000.0001)  cg2d: iter=   120 ; resid.=  1.63828817167613E-12
(PID.TID 0000.0001)  cg2d: iter=   121 ; resid.=  1.33373726271044E-12
(PID.TID 0000.0001)  cg2d: iter=   122 ; resid.=  1.03784895766114E-12
(PID.TID 0000.0001)  cg2d: iter=   123 ; resid.=  7.31392719989908E-13
(PID.TID 0000.0001)  cg2d: iter=   124 ; resid.=  5.10259160815217E-13
(PID.TID 0000.0001)  cg2d: iter=   125 ; resid.=  4.08228837534242E-13
(PID.TID 0000.0001)  cg2d: iter=   126 ; resid.=  3.54727445050621E-13
(PID.TID 0000.0001)  cg2d: iter=   127 ; resid.=  2.77204929110148E-13
(PID.TID 0000.0001)  cg2d: iter=   128 ; resid.=  1.92734504576403E-13
(PID.TID 0000.0001)  cg2d: iter=   129 ; resid.=  1.27610278371559E-13
(PID.TID 0000.0001)  cg2d: iter=   130 ; resid.=  9.72391106218705E-14
DEBUG_STATS_RL:    cg2d_x (SOLVE_FOR_PRESSURE)  min= -1.61677912080059E+01
DEBUG_STATS_RL:    cg2d_x (SOLVE_FOR_PRESSURE)  max=  8.75581213554406E+00
DEBUG_STATS_RL:    cg2d_x (SOLVE_FOR_PRESSURE) mean= -1.64930511818290E+00
DEBUG_STATS_RL:    cg2d_x (SOLVE_FOR_PRESSURE) S.D.=  6.29515565663756E+00
(PID.TID 0000.0001)      cg2d_init_res =   4.08563248298512E-01
(PID.TID 0000.0001)      cg2d_iters(min,last) =      -1     130
(PID.TID 0000.0001)      cg2d_last_res =   9.72391106218705E-14
(PID.TID 0000.0001) // =======================================================
(PID.TID 0000.0001) // Begin MONITOR dynamic field statistics
(PID.TID 0000.0001) // =======================================================
(PID.TID 0000.0001) %MON time_tsnumber                =                    34
(PID.TID 0000.0001) %MON time_secondsf                =   2.9376000000000E+06
(PID.TID 0000.0001) %MON dynstat_eta_max              =   8.9253946335821E-01
(PID.TID 0000.0001) %MON dynstat_eta_min              =  -1.6480928856276E+00
(PID.TID 0000.0001) %MON dynstat_eta_mean             =  -2.5314097347134E-03
(PID.TID 0000.0001) %MON dynstat_eta_sd               =   5.5748669248352E-01
(PID.TID 0000.0001) %MON dynstat_eta_del2             =   2.1654682033253E-03
(PID.TID 0000.0001) %MON dynstat_uvel_max             =   1.0200478943011E-01
(PID.TID 0000.0001) %MON dynstat_uvel_min             =  -1.6176858713504E-01
(PID.TID 0000.0001) %MON dynstat_uvel_mean            =   1.0326999483545E-03
(PID.TID 0000.0001) %MON dynstat_uvel_sd              =   1.0886794619341E-02
(PID.TID 0000.0001) %MON dynstat_uvel_del2            =   7.4968955812035E-05
(PID.TID 0000.0001) %MON dynstat_vvel_max             =   1.0557708116187E-01
(PID.TID 0000.0001) %MON dynstat_vvel_min             =  -1.0807144748724E-01
(PID.TID 0000.0001) %MON dynstat_vvel_mean            =   1.0567545328736E-05
(PID.TID 0000.0001) %MON dynstat_vvel_sd              =   8.2082207873348E-03
(PID.TID 0000.0001) %MON dynstat_vvel_del2            =   7.3344956502221E-05
(PID.TID 0000.0001) %MON dynstat_wvel_max             =   9.3364144298310E-05
(PID.TID 0000.0001) %MON dynstat_wvel_min             =  -1.1021994237010E-04
(PID.TID 0000.0001) %MON dynstat_wvel_mean            =  -2.9323852415890E-22
(PID.TID 0000.0001) %MON dynstat_wvel_sd              =   1.3464144065896E-05
(PID.TID 0000.0001) %MON dynstat_wvel_del2            =   1.6067680260935E-07
(PID.TID 0000.0001) %MON dynstat_theta_max            =   3.0052107933527E+01
(PID.TID 0000.0001) %MON dynstat_theta_min            =  -2.0051859867160E+00
(PID.TID 0000.0001) %MON dynstat_theta_mean           =   3.6215056835520E+00
(PID.TID 0000.0001) %MON dynstat_theta_sd             =   4.4180550437346E+00
(PID.TID 0000.0001) %MON dynstat_theta_del2           =   4.7970664401245E-03
(PID.TID 0000.0001) %MON dynstat_salt_max             =   3.7454302628489E+01
(PID.TID 0000.0001) %MON dynstat_salt_min             =   2.9818707881789E+01
(PID.TID 0000.0001) %MON dynstat_salt_mean            =   3.4717980537106E+01
(PID.TID 0000.0001) %MON dynstat_salt_sd              =   2.9627277572778E-01
(PID.TID 0000.0001) %MON dynstat_salt_del2            =   9.9121426191452E-04
(PID.TID 0000.0001) %MON dynstat_sst_max              =   3.0052107933527E+01
(PID.TID 0000.0001) %MON dynstat_sst_min              =  -2.0051859867160E+00
(PID.TID 0000.0001) %MON dynstat_sst_mean             =   1.8770967595373E+01
(PID.TID 0000.0001) %MON dynstat_sst_sd               =   9.0398774364633E+00
(PID.TID 0000.0001) %MON dynstat_sst_del2             =   2.6706303872937E-02
(PID.TID 0000.0001) %MON dynstat_sss_max              =   3.7432615456229E+01
(PID.TID 0000.0001) %MON dynstat_sss_min              =   2.9818707881789E+01
(PID.TID 0000.0001) %MON dynstat_sss_mean             =   3.4844741333521E+01
(PID.TID 0000.0001) %MON dynstat_sss_sd               =   9.7598553162310E-01
(PID.TID 0000.0001) %MON dynstat_sss_del2             =   7.8448701367526E-03
(PID.TID 0000.0001) %MON forcing_qnet_max             =   3.8187005615234E+02
(PID.TID 0000.0001) %MON forcing_qnet_min             =  -1.7570820007324E+02
(PID.TID 0000.0001) %MON forcing_qnet_mean            =  -1.4984160987784E+01
(PID.TID 0000.0001) %MON forcing_qnet_sd              =   9.1092630456928E+01
(PID.TID 0000.0001) %MON forcing_qnet_del2            =   9.6613871099960E-01
(PID.TID 0000.0001) %MON forcing_qsw_max              =   0.0000000000000E+00
(PID.TID 0000.0001) %MON forcing_qsw_min              =   0.0000000000000E+00
(PID.TID 0000.0001) %MON forcing_qsw_mean             =   0.0000000000000E+00
(PID.TID 0000.0001) %MON forcing_qsw_sd               =   0.0000000000000E+00
(PID.TID 0000.0001) %MON forcing_qsw_del2             =   0.0000000000000E+00
(PID.TID 0000.0001) %MON forcing_empmr_max            =   7.6520623792931E-05
(PID.TID 0000.0001) %MON forcing_empmr_min            =  -7.7589552915924E-05
(PID.TID 0000.0001) %MON forcing_empmr_mean           =   9.3522021278988E-07
(PID.TID 0000.0001) %MON forcing_empmr_sd             =   2.8112018032576E-05
(PID.TID 0000.0001) %MON forcing_empmr_del2           =   3.5413910341625E-07
(PID.TID 0000.0001) %MON forcing_fu_max               =   2.8798962831497E-01
(PID.TID 0000.0001) %MON forcing_fu_min               =  -1.9581326544285E-01
(PID.TID 0000.0001) %MON forcing_fu_mean              =   1.6979139031008E-02
(PID.TID 0000.0001) %MON forcing_fu_sd                =   9.0367493904055E-02
(PID.TID 0000.0001) %MON forcing_fu_del2              =   6.7397847691000E-04
(PID.TID 0000.0001) %MON forcing_fv_max               =   1.8591085970402E-01
(PID.TID 0000.0001) %MON forcing_fv_min               =  -1.6161646842957E-01
(PID.TID 0000.0001) %MON forcing_fv_mean              =  -6.4335940603783E-03
(PID.TID 0000.0001) %MON forcing_fv_sd                =   4.4654100071951E-02
(PID.TID 0000.0001) %MON forcing_fv_del2              =   4.7289247100782E-04
(PID.TID 0000.0001) %MON trAdv_CFL_u_max              =   3.4266309092030E-02
(PID.TID 0000.0001) %MON trAdv_CFL_v_max              =   2.2777700445418E-02
(PID.TID 0000.0001) %MON trAdv_CFL_w_max              =   4.1254734442477E-02
(PID.TID 0000.0001) %MON advcfl_uvel_max              =   3.6878657820407E-02
(PID.TID 0000.0001) %MON advcfl_vvel_max              =   2.0996548989135E-02
(PID.TID 0000.0001) %MON advcfl_wvel_max              =   3.2731875871098E-02
(PID.TID 0000.0001) %MON advcfl_W_hf_max              =   3.9745849272047E-02
(PID.TID 0000.0001) %MON pe_b_mean                    =   3.9770327245520E-04
(PID.TID 0000.0001) %MON ke_max                       =   1.3833755021692E-02
(PID.TID 0000.0001) %MON ke_mean                      =   8.4578577473508E-05
(PID.TID 0000.0001) %MON ke_vol                       =   1.3226782436723E+18
(PID.TID 0000.0001) %MON vort_r_min                   =  -3.5801744550560E-07
(PID.TID 0000.0001) %MON vort_r_max                   =   4.1318950279609E-07
(PID.TID 0000.0001) %MON vort_a_mean                  =  -2.5274807058442E-05
(PID.TID 0000.0001) %MON vort_a_sd                    =   7.3604491392675E-05
(PID.TID 0000.0001) %MON vort_p_mean                  =  -3.1845655372329E-05
(PID.TID 0000.0001) %MON vort_p_sd                    =   1.3162511690116E-04
(PID.TID 0000.0001) %MON surfExpan_theta_mean         =   1.8694313458899E-07
(PID.TID 0000.0001) %MON surfExpan_salt_mean          =   5.1357153080362E-08
(PID.TID 0000.0001) // =======================================================
(PID.TID 0000.0001) // End MONITOR dynamic field statistics
(PID.TID 0000.0001) // =======================================================
 EXTERNAL_FIELDS_LOAD,        34 : iP,iLd,i0,i1=    1    2    1    2 ; Wght=  0.3666666667  0.6333333333
 EXTERNAL_FIELDS_LOAD: (fu0,1),fu,fv= -3.5633E-02 -1.4435E-02 -2.2207E-02 -3.2163E-02
 EXTERNAL_FIELDS_LOAD: SST,SSS,Q,E-P=  1.4580E-02  3.4529E+01  2.4975E+02  9.5723E-06
DEBUG_STATS_RL:          Uvel (THERMODYNAMICS)  min= -1.61768587135037E-01
DEBUG_STATS_RL:          Uvel (THERMODYNAMICS)  max=  1.02004789430106E-01
DEBUG_STATS_RL:          Uvel (THERMODYNAMICS) mean=  1.56617718363149E-03
DEBUG_STATS_RL:          Uvel (THERMODYNAMICS) S.D.=  1.78716068788187E-02
DEBUG_STATS_RL:          Vvel (THERMODYNAMICS)  min= -1.08071447487235E-01
DEBUG_STATS_RL:          Vvel (THERMODYNAMICS)  max=  1.05577081161870E-01
DEBUG_STATS_RL:          Vvel (THERMODYNAMICS) mean= -2.09243180463943E-04
DEBUG_STATS_RL:          Vvel (THERMODYNAMICS) S.D.=  1.27334216299743E-02
DEBUG_STATS_RL:          Wvel (THERMODYNAMICS)  min= -1.10219942370100E-04
DEBUG_STATS_RL:          Wvel (THERMODYNAMICS)  max=  9.33641442983102E-05
DEBUG_STATS_RL:          Wvel (THERMODYNAMICS) mean= -2.97970194368021E-07
DEBUG_STATS_RL:          Wvel (THERMODYNAMICS) S.D.=  1.21930965950863E-05
DEBUG_STATS_RL:         Theta (THERMODYNAMICS)  min= -2.00415816457788E+00
DEBUG_STATS_RL:         Theta (THERMODYNAMICS)  max=  3.00736561510477E+01
DEBUG_STATS_RL:         Theta (THERMODYNAMICS) mean=  3.21104809919273E+00
DEBUG_STATS_RL:         Theta (THERMODYNAMICS) S.D.=  5.86074658517769E+00
DEBUG_STATS_RL:          Salt (THERMODYNAMICS)  min= -1.56125112837913E-17
DEBUG_STATS_RL:          Salt (THERMODYNAMICS)  max=  3.74545456166909E+01
DEBUG_STATS_RL:          Salt (THERMODYNAMICS) mean=  1.88448375772302E+01
DEBUG_STATS_RL:          Salt (THERMODYNAMICS) S.D.=  1.73003548920521E+01
DEBUG_STATS_RL:         GtNm1 (THERMODYNAMICS)  min= -2.88644177404465E-06
DEBUG_STATS_RL:         GtNm1 (THERMODYNAMICS)  max=  2.39735826753754E-06
DEBUG_STATS_RL:         GtNm1 (THERMODYNAMICS) mean=  1.05152119986656E-08
DEBUG_STATS_RL:         GtNm1 (THERMODYNAMICS) S.D.=  2.04352886091257E-07
DEBUG_STATS_RL:         GsNm1 (THERMODYNAMICS)  min= -4.72781485172930E-07
DEBUG_STATS_RL:         GsNm1 (THERMODYNAMICS)  max=  3.27305198299619E-07
DEBUG_STATS_RL:         GsNm1 (THERMODYNAMICS) mean= -4.34417777225463E-10
DEBUG_STATS_RL:         GsNm1 (THERMODYNAMICS) S.D.=  1.77223102575318E-08
DEBUG_STATS_RL:                EtaN (DYNAMICS)  min= -1.64809288562756E+00
DEBUG_STATS_RL:                EtaN (DYNAMICS)  max=  8.92539463358206E-01
DEBUG_STATS_RL:                EtaN (DYNAMICS) mean= -1.68124884626188E-01
DEBUG_STATS_RL:                EtaN (DYNAMICS) S.D.=  6.41708018005867E-01
DEBUG_STATS_RL:                Uvel (DYNAMICS)  min= -1.61768587135037E-01
DEBUG_STATS_RL:                Uvel (DYNAMICS)  max=  1.02004789430106E-01
DEBUG_STATS_RL:                Uvel (DYNAMICS) mean=  1.56617718363149E-03
DEBUG_STATS_RL:                Uvel (DYNAMICS) S.D.=  1.78716068788187E-02
DEBUG_STATS_RL:                Vvel (DYNAMICS)  min= -1.08071447487235E-01
DEBUG_STATS_RL:                Vvel (DYNAMICS)  max=  1.05577081161870E-01
DEBUG_STATS_RL:                Vvel (DYNAMICS) mean= -2.09243180463943E-04
DEBUG_STATS_RL:                Vvel (DYNAMICS) S.D.=  1.27334216299743E-02
DEBUG_STATS_RL:                Wvel (DYNAMICS)  min= -1.10219942370100E-04
DEBUG_STATS_RL:                Wvel (DYNAMICS)  max=  9.33641442983102E-05
DEBUG_STATS_RL:                Wvel (DYNAMICS) mean= -2.97970194368021E-07
DEBUG_STATS_RL:                Wvel (DYNAMICS) S.D.=  1.21930965950863E-05
DEBUG_STATS_RL:               Theta (DYNAMICS)  min= -2.00415816457788E+00
DEBUG_STATS_RL:               Theta (DYNAMICS)  max=  3.00736561510477E+01
DEBUG_STATS_RL:               Theta (DYNAMICS) mean=  3.21104809919273E+00
DEBUG_STATS_RL:               Theta (DYNAMICS) S.D.=  5.86074658517769E+00
DEBUG_STATS_RL:                Salt (DYNAMICS)  min= -1.56125112837913E-17
DEBUG_STATS_RL:                Salt (DYNAMICS)  max=  3.74545456166909E+01
DEBUG_STATS_RL:                Salt (DYNAMICS) mean=  1.88448375772302E+01
DEBUG_STATS_RL:                Salt (DYNAMICS) S.D.=  1.73003548920521E+01
DEBUG_STATS_RL:                  Gu (DYNAMICS)  min= -1.61109216808139E-01
DEBUG_STATS_RL:                  Gu (DYNAMICS)  max=  1.07966681130500E-01
DEBUG_STATS_RL:                  Gu (DYNAMICS) mean=  1.63861237688473E-03
DEBUG_STATS_RL:                  Gu (DYNAMICS) S.D.=  1.88164299604905E-02
DEBUG_STATS_RL:                  Gv (DYNAMICS)  min= -1.08010630261668E-01
DEBUG_STATS_RL:                  Gv (DYNAMICS)  max=  9.78480181188773E-02
DEBUG_STATS_RL:                  Gv (DYNAMICS) mean=  1.93711326604144E-03
DEBUG_STATS_RL:                  Gv (DYNAMICS) S.D.=  1.32005094510708E-02
DEBUG_STATS_RL:               GuNm1 (DYNAMICS)  min= -7.90749528864833E-06
DEBUG_STATS_RL:               GuNm1 (DYNAMICS)  max=  7.86421525920150E-06
DEBUG_STATS_RL:               GuNm1 (DYNAMICS) mean= -1.87661509688486E-08
DEBUG_STATS_RL:               GuNm1 (DYNAMICS) S.D.=  1.18696745967210E-06
DEBUG_STATS_RL:               GvNm1 (DYNAMICS)  min= -1.05925531277375E-05
DEBUG_STATS_RL:               GvNm1 (DYNAMICS)  max=  1.64286656535522E-05
DEBUG_STATS_RL:               GvNm1 (DYNAMICS) mean=  7.54749351011067E-07
DEBUG_STATS_RL:               GvNm1 (DYNAMICS) S.D.=  2.63391714196976E-06
DEBUG_STATS_RL:               GtNm1 (DYNAMICS)  min= -2.88644177404465E-06
DEBUG_STATS_RL:               GtNm1 (DYNAMICS)  max=  2.39735826753754E-06
DEBUG_STATS_RL:               GtNm1 (DYNAMICS) mean=  1.05152119986656E-08
DEBUG_STATS_RL:               GtNm1 (DYNAMICS) S.D.=  2.04352886091257E-07
DEBUG_STATS_RL:               GsNm1 (DYNAMICS)  min= -4.72781485172930E-07
DEBUG_STATS_RL:               GsNm1 (DYNAMICS)  max=  3.27305198299619E-07
DEBUG_STATS_RL:               GsNm1 (DYNAMICS) mean= -4.34417777225463E-10
DEBUG_STATS_RL:               GsNm1 (DYNAMICS) S.D.=  1.77223102575318E-08
DEBUG_STATS_RL:    cg2d_b (SOLVE_FOR_PRESSURE)  min= -2.00041641242591E+04
DEBUG_STATS_RL:    cg2d_b (SOLVE_FOR_PRESSURE)  max=  1.91533573190609E+04
DEBUG_STATS_RL:    cg2d_b (SOLVE_FOR_PRESSURE) mean=  2.50105163115304E+00
DEBUG_STATS_RL:    cg2d_b (SOLVE_FOR_PRESSURE) S.D.=  3.73687691180315E+03
 cg2d: Sum(rhs),rhsMax =   2.89436463835830E-01  1.31392705934470E+00
(PID.TID 0000.0001)  cg2d: iter=     1 ; resid.=  9.99372045615020E-02
(PID.TID 0000.0001)  cg2d: iter=     2 ; resid.=  5.52608790928835E-02
(PID.TID 0000.0001)  cg2d: iter=     3 ; resid.=  4.47070219920436E-02
(PID.TID 0000.0001)  cg2d: iter=     4 ; resid.=  4.72834701311500E-02
(PID.TID 0000.0001)  cg2d: iter=     5 ; resid.=  4.81228339040509E-02
(PID.TID 0000.0001)  cg2d: iter=     6 ; resid.=  4.14989679761005E-02
(PID.TID 0000.0001)  cg2d: iter=     7 ; resid.=  3.37440904376165E-02
(PID.TID 0000.0001)  cg2d: iter=     8 ; resid.=  2.66582636902149E-02
(PID.TID 0000.0001)  cg2d: iter=     9 ; resid.=  2.08980108049081E-02
(PID.TID 0000.0001)  cg2d: iter=    10 ; resid.=  1.72420015858090E-02
(PID.TID 0000.0001)  cg2d: iter=    11 ; resid.=  1.48948413963960E-02
(PID.TID 0000.0001)  cg2d: iter=    12 ; resid.=  1.28801786732916E-02
(PID.TID 0000.0001)  cg2d: iter=    13 ; resid.=  1.13223831121253E-02
(PID.TID 0000.0001)  cg2d: iter=    14 ; resid.=  9.63633737002746E-03
(PID.TID 0000.0001)  cg2d: iter=    15 ; resid.=  7.76994851959772E-03
(PID.TID 0000.0001)  cg2d: iter=    16 ; resid.=  6.39093145219088E-03
(PID.TID 0000.0001)  cg2d: iter=    17 ; resid.=  5.91404396793477E-03
(PID.TID 0000.0001)  cg2d: iter=    18 ; resid.=  5.06107095597717E-03
(PID.TID 0000.0001)  cg2d: iter=    19 ; resid.=  3.93168689295496E-03
(PID.TID 0000.0001)  cg2d: iter=    20 ; resid.=  3.09998982055425E-03
(PID.TID 0000.0001)  cg2d: iter=    21 ; resid.=  2.38701693066054E-03
(PID.TID 0000.0001)  cg2d: iter=    22 ; resid.=  1.95513138032433E-03
(PID.TID 0000.0001)  cg2d: iter=    23 ; resid.=  1.70644707461148E-03
(PID.TID 0000.0001)  cg2d: iter=    24 ; resid.=  1.47136275708177E-03
(PID.TID 0000.0001)  cg2d: iter=    25 ; resid.=  1.24925697126559E-03
(PID.TID 0000.0001)  cg2d: iter=    26 ; resid.=  1.05493308592211E-03
(PID.TID 0000.0001)  cg2d: iter=    27 ; resid.=  9.11108902387407E-04
(PID.TID 0000.0001)  cg2d: iter=    28 ; resid.=  7.90188951011266E-04
(PID.TID 0000.0001)  cg2d: iter=    29 ; resid.=  6.33906166041667E-04
(PID.TID 0000.0001)  cg2d: iter=    30 ; resid.=  4.80348146579521E-04
(PID.TID 0000.0001)  cg2d: iter=    31 ; resid.=  3.91412956580139E-04
(PID.TID 0000.0001)  cg2d: iter=    32 ; resid.=  3.14668703381556E-04
(PID.TID 0000.0001)  cg2d: iter=    33 ; resid.=  2.56619762018187E-04
(PID.TID 0000.0001)  cg2d: iter=    34 ; resid.=  1.93979229733620E-04
(PID.TID 0000.0001)  cg2d: iter=    35 ; resid.=  1.56438395925315E-04
(PID.TID 0000.0001)  cg2d: iter=    36 ; resid.=  1.42846496800863E-04
(PID.TID 0000.0001)  cg2d: iter=    37 ; resid.=  1.36247938280771E-04
(PID.TID 0000.0001)  cg2d: iter=    38 ; resid.=  1.26621457094297E-04
(PID.TID 0000.0001)  cg2d: iter=    39 ; resid.=  1.06334294404272E-04
(PID.TID 0000.0001)  cg2d: iter=    40 ; resid.=  8.92506180399743E-05
(PID.TID 0000.0001)  cg2d: iter=    41 ; resid.=  7.40510994727360E-05
(PID.TID 0000.0001)  cg2d: iter=    42 ; resid.=  6.13090108643376E-05
(PID.TID 0000.0001)  cg2d: iter=    43 ; resid.=  5.35720159655041E-05
(PID.TID 0000.0001)  cg2d: iter=    44 ; resid.=  4.69784320315142E-05
(PID.TID 0000.0001)  cg2d: iter=    45 ; resid.=  3.97921048802918E-05
(PID.TID 0000.0001)  cg2d: iter=    46 ; resid.=  3.23267389019820E-05
(PID.TID 0000.0001)  cg2d: iter=    47 ; resid.=  2.48029258932226E-05
(PID.TID 0000.0001)  cg2d: iter=    48 ; resid.=  1.90964484196815E-05
(PID.TID 0000.0001)  cg2d: iter=    49 ; resid.=  1.44959920384944E-05
(PID.TID 0000.0001)  cg2d: iter=    50 ; resid.=  1.15161810991321E-05
(PID.TID 0000.0001)  cg2d: iter=    51 ; resid.=  9.63165554806772E-06
(PID.TID 0000.0001)  cg2d: iter=    52 ; resid.=  9.02621792306401E-06
(PID.TID 0000.0001)  cg2d: iter=    53 ; resid.=  8.46779743109233E-06
(PID.TID 0000.0001)  cg2d: iter=    54 ; resid.=  6.87393475258845E-06
(PID.TID 0000.0001)  cg2d: iter=    55 ; resid.=  5.51013560487808E-06
(PID.TID 0000.0001)  cg2d: iter=    56 ; resid.=  4.53832863218111E-06
(PID.TID 0000.0001)  cg2d: iter=    57 ; resid.=  3.65875560029305E-06
(PID.TID 0000.0001)  cg2d: iter=    58 ; resid.=  2.92474264649593E-06
(PID.TID 0000.0001)  cg2d: iter=    59 ; resid.=  2.30261313159695E-06
(PID.TID 0000.0001)  cg2d: iter=    60 ; resid.=  1.66249720281699E-06
(PID.TID 0000.0001)  cg2d: iter=    61 ; resid.=  1.23745033546679E-06
(PID.TID 0000.0001)  cg2d: iter=    62 ; resid.=  9.81131714465074E-07
(PID.TID 0000.0001)  cg2d: iter=    63 ; resid.=  7.33485905680994E-07
(PID.TID 0000.0001)  cg2d: iter=    64 ; resid.=  5.61045347354230E-07
(PID.TID 0000.0001)  cg2d: iter=    65 ; resid.=  4.40788174586518E-07
(PID.TID 0000.0001)  cg2d: iter=    66 ; resid.=  3.80291799578870E-07
(PID.TID 0000.0001)  cg2d: iter=    67 ; resid.=  3.17111349666739E-07
(PID.TID 0000.0001)  cg2d: iter=    68 ; resid.=  2.61678182056437E-07
(PID.TID 0000.0001)  cg2d: iter=    69 ; resid.=  1.97630043239704E-07
(PID.TID 0000.0001)  cg2d: iter=    70 ; resid.=  1.48855874875302E-07
(PID.TID 0000.0001)  cg2d: iter=    71 ; resid.=  1.16720916655244E-07
(PID.TID 0000.0001)  cg2d: iter=    72 ; resid.=  9.53335300645714E-08
(PID.TID 0000.0001)  cg2d: iter=    73 ; resid.=  8.23019853315488E-08
(PID.TID 0000.0001)  cg2d: iter=    74 ; resid.=  7.16433325483993E-08
(PID.TID 0000.0001)  cg2d: iter=    75 ; resid.=  6.65834226940038E-08
(PID.TID 0000.0001)  cg2d: iter=    76 ; resid.=  5.93101549920859E-08
(PID.TID 0000.0001)  cg2d: iter=    77 ; resid.=  4.90585296432150E-08
(PID.TID 0000.0001)  cg2d: iter=    78 ; resid.=  3.95461605721530E-08
(PID.TID 0000.0001)  cg2d: iter=    79 ; resid.=  3.44809415591700E-08
(PID.TID 0000.0001)  cg2d: iter=    80 ; resid.=  3.07289676980083E-08
(PID.TID 0000.0001)  cg2d: iter=    81 ; resid.=  2.46630861269071E-08
(PID.TID 0000.0001)  cg2d: iter=    82 ; resid.=  1.86412432221219E-08
(PID.TID 0000.0001)  cg2d: iter=    83 ; resid.=  1.34059180345943E-08
(PID.TID 0000.0001)  cg2d: iter=    84 ; resid.=  1.01987409056310E-08
(PID.TID 0000.0001)  cg2d: iter=    85 ; resid.=  7.33937089712162E-09
(PID.TID 0000.0001)  cg2d: iter=    86 ; resid.=  5.23358184297782E-09
(PID.TID 0000.0001)  cg2d: iter=    87 ; resid.=  3.99044778144318E-09
(PID.TID 0000.0001)  cg2d: iter=    88 ; resid.=  2.97400832127070E-09
(PID.TID 0000.0001)  cg2d: iter=    89 ; resid.=  2.29818379296800E-09
(PID.TID 0000.0001)  cg2d: iter=    90 ; resid.=  1.96806195595260E-09
(PID.TID 0000.0001)  cg2d: iter=    91 ; resid.=  1.77138481198347E-09
(PID.TID 0000.0001)  cg2d: iter=    92 ; resid.=  1.48044003372454E-09
(PID.TID 0000.0001)  cg2d: iter=    93 ; resid.=  1.18347930488108E-09
(PID.TID 0000.0001)  cg2d: iter=    94 ; resid.=  9.50641354509730E-10
(PID.TID 0000.0001)  cg2d: iter=    95 ; resid.=  8.04901846853683E-10
(PID.TID 0000.0001)  cg2d: iter=    96 ; resid.=  6.96190454536676E-10
(PID.TID 0000.0001)  cg2d: iter=    97 ; resid.=  5.87026746359197E-10
(PID.TID 0000.0001)  cg2d: iter=    98 ; resid.=  4.53010623036488E-10
(PID.TID 0000.0001)  cg2d: iter=    99 ; resid.=  3.23732960945729E-10
(PID.TID 0000.0001)  cg2d: iter=   100 ; resid.=  2.50300376494406E-10
(PID.TID 0000.0001)  cg2d: iter=   101 ; resid.=  2.14717531853540E-10
(PID.TID 0000.0001)  cg2d: iter=   102 ; resid.=  1.99968132084907E-10
(PID.TID 0000.0001)  cg2d: iter=   103 ; resid.=  1.62954487485096E-10
(PID.TID 0000.0001)  cg2d: iter=   104 ; resid.=  1.27734080496893E-10
(PID.TID 0000.0001)  cg2d: iter=   105 ; resid.=  1.00685197094579E-10
(PID.TID 0000.0001)  cg2d: iter=   106 ; resid.=  7.77812019622365E-11
(PID.TID 0000.0001)  cg2d: iter=   107 ; resid.=  5.85221546906158E-11
(PID.TID 0000.0001)  cg2d: iter=   108 ; resid.=  4.39702748430309E-11
(PID.TID 0000.0001)  cg2d: iter=   109 ; resid.=  3.26737060515504E-11
(PID.TID 0000.0001)  cg2d: iter=   110 ; resid.=  2.34624306205042E-11
(PID.TID 0000.0001)  cg2d: iter=   111 ; resid.=  1.64883468524700E-11
(PID.TID 0000.0001)  cg2d: iter=   112 ; resid.=  1.25165213699118E-11
(PID.TID 0000.0001)  cg2d: iter=   113 ; resid.=  9.71831180658151E-12
(PID.TID 0000.0001)  cg2d: iter=   114 ; resid.=  7.22357268632609E-12
(PID.TID 0000.0001)  cg2d: iter=   115 ; resid.=  5.68263133435389E-12
(PID.TID 0000.0001)  cg2d: iter=   116 ; resid.=  4.32239048643817E-12
(PID.TID 0000.0001)  cg2d: iter=   117 ; resid.=  3.37026275130033E-12
(PID.TID 0000.0001)  cg2d: iter=   118 ; resid.=  2.33621954031509E-12
(PID.TID 0000.0001)  cg2d: iter=   119 ; resid.=  1.72490799790126E-12
(PID.TID 0000.0001)  cg2d: iter=   120 ; resid.=  1.38163050104118E-12
(PID.TID 0000.0001)  cg2d: iter=   121 ; resid.=  1.11131581803072E-12
(PID.TID 0000.0001)  cg2d: iter=   122 ; resid.=  8.55094812345305E-13
(PID.TID 0000.0001)  cg2d: iter=   123 ; resid.=  5.98500614403630E-13
(PID.TID 0000.0001)  cg2d: iter=   124 ; resid.=  4.06555490752308E-13
(PID.TID 0000.0001)  cg2d: iter=   125 ; resid.=  3.04417361481123E-13
(PID.TID 0000.0001)  cg2d: iter=   126 ; resid.=  2.58092598330139E-13
(PID.TID 0000.0001)  cg2d: iter=   127 ; resid.=  2.03355288756927E-13
(PID.TID 0000.0001)  cg2d: iter=   128 ; resid.=  1.44856114965171E-13
(PID.TID 0000.0001)  cg2d: iter=   129 ; resid.=  9.44536242725209E-14
DEBUG_STATS_RL:    cg2d_x (SOLVE_FOR_PRESSURE)  min= -1.60521823768553E+01
DEBUG_STATS_RL:    cg2d_x (SOLVE_FOR_PRESSURE)  max=  8.66852562223550E+00
DEBUG_STATS_RL:    cg2d_x (SOLVE_FOR_PRESSURE) mean= -1.65311584304943E+00
DEBUG_STATS_RL:    cg2d_x (SOLVE_FOR_PRESSURE) S.D.=  6.29678236463922E+00
(PID.TID 0000.0001)      cg2d_init_res =   4.08331444981001E-01
(PID.TID 0000.0001)      cg2d_iters(min,last) =      -1     129
(PID.TID 0000.0001)      cg2d_last_res =   9.44536242725209E-14
(PID.TID 0000.0001) // =======================================================
(PID.TID 0000.0001) // Begin MONITOR dynamic field statistics
(PID.TID 0000.0001) // =======================================================
(PID.TID 0000.0001) %MON time_tsnumber                =                    35
(PID.TID 0000.0001) %MON time_secondsf                =   3.0240000000000E+06
(PID.TID 0000.0001) %MON dynstat_eta_max              =   8.8364175557949E-01
(PID.TID 0000.0001) %MON dynstat_eta_min              =  -1.6363080914225E+00
(PID.TID 0000.0001) %MON dynstat_eta_mean             =  -2.6095372569432E-03
(PID.TID 0000.0001) %MON dynstat_eta_sd               =   5.5708970735162E-01
(PID.TID 0000.0001) %MON dynstat_eta_del2             =   2.1640610849366E-03
(PID.TID 0000.0001) %MON dynstat_uvel_max             =   1.1188439084686E-01
(PID.TID 0000.0001) %MON dynstat_uvel_min             =  -1.5943369223788E-01
(PID.TID 0000.0001) %MON dynstat_uvel_mean            =   1.0675628313609E-03
(PID.TID 0000.0001) %MON dynstat_uvel_sd              =   1.1185505937852E-02
(PID.TID 0000.0001) %MON dynstat_uvel_del2            =   7.6090375206058E-05
(PID.TID 0000.0001) %MON dynstat_vvel_max             =   1.0346192699570E-01
(PID.TID 0000.0001) %MON dynstat_vvel_min             =  -1.0609831056311E-01
(PID.TID 0000.0001) %MON dynstat_vvel_mean            =   1.0952746908270E-05
(PID.TID 0000.0001) %MON dynstat_vvel_sd              =   8.3366972585577E-03
(PID.TID 0000.0001) %MON dynstat_vvel_del2            =   7.4041508361807E-05
(PID.TID 0000.0001) %MON dynstat_wvel_max             =   9.0185059924600E-05
(PID.TID 0000.0001) %MON dynstat_wvel_min             =  -1.0897442590258E-04
(PID.TID 0000.0001) %MON dynstat_wvel_mean            =  -2.1544221596955E-23
(PID.TID 0000.0001) %MON dynstat_wvel_sd              =   1.3638337705126E-05
(PID.TID 0000.0001) %MON dynstat_wvel_del2            =   1.5916792034821E-07
(PID.TID 0000.0001) %MON dynstat_theta_max            =   3.0073656151048E+01
(PID.TID 0000.0001) %MON dynstat_theta_min            =  -2.0041581645779E+00
(PID.TID 0000.0001) %MON dynstat_theta_mean           =   3.6215845765317E+00
(PID.TID 0000.0001) %MON dynstat_theta_sd             =   4.4182455707890E+00
(PID.TID 0000.0001) %MON dynstat_theta_del2           =   4.7856850394274E-03
(PID.TID 0000.0001) %MON dynstat_salt_max             =   3.7454545616691E+01
(PID.TID 0000.0001) %MON dynstat_salt_min             =   2.9819716265701E+01
(PID.TID 0000.0001) %MON dynstat_salt_mean            =   3.4717980343938E+01
(PID.TID 0000.0001) %MON dynstat_salt_sd              =   2.9627871000992E-01
(PID.TID 0000.0001) %MON dynstat_salt_del2            =   9.8979680794585E-04
(PID.TID 0000.0001) %MON dynstat_sst_max              =   3.0073656151048E+01
(PID.TID 0000.0001) %MON dynstat_sst_min              =  -2.0041581645779E+00
(PID.TID 0000.0001) %MON dynstat_sst_mean             =   1.8781106359275E+01
(PID.TID 0000.0001) %MON dynstat_sst_sd               =   9.0354002483647E+00
(PID.TID 0000.0001) %MON dynstat_sst_del2             =   2.6724090319590E-02
(PID.TID 0000.0001) %MON dynstat_sss_max              =   3.7432243623526E+01
(PID.TID 0000.0001) %MON dynstat_sss_min              =   2.9819716265701E+01
(PID.TID 0000.0001) %MON dynstat_sss_mean             =   3.4844476482637E+01
(PID.TID 0000.0001) %MON dynstat_sss_sd               =   9.7611021758184E-01
(PID.TID 0000.0001) %MON dynstat_sss_del2             =   7.8420556550417E-03
(PID.TID 0000.0001) %MON forcing_qnet_max             =   3.7855096944173E+02
(PID.TID 0000.0001) %MON forcing_qnet_min             =  -1.7546868082682E+02
(PID.TID 0000.0001) %MON forcing_qnet_mean            =  -1.4899251820380E+01
(PID.TID 0000.0001) %MON forcing_qnet_sd              =   9.0096938655160E+01
(PID.TID 0000.0001) %MON forcing_qnet_del2            =   9.6402608526261E-01
(PID.TID 0000.0001) %MON forcing_qsw_max              =   0.0000000000000E+00
(PID.TID 0000.0001) %MON forcing_qsw_min              =   0.0000000000000E+00
(PID.TID 0000.0001) %MON forcing_qsw_mean             =   0.0000000000000E+00
(PID.TID 0000.0001) %MON forcing_qsw_sd               =   0.0000000000000E+00
(PID.TID 0000.0001) %MON forcing_qsw_del2             =   0.0000000000000E+00
(PID.TID 0000.0001) %MON forcing_empmr_max            =   7.6206534060930E-05
(PID.TID 0000.0001) %MON forcing_empmr_min            =  -7.7669197177480E-05
(PID.TID 0000.0001) %MON forcing_empmr_mean           =   9.3590261004984E-07
(PID.TID 0000.0001) %MON forcing_empmr_sd             =   2.8090956758980E-05
(PID.TID 0000.0001) %MON forcing_empmr_del2           =   3.5396239938418E-07
(PID.TID 0000.0001) %MON forcing_fu_max               =   2.8937678635120E-01
(PID.TID 0000.0001) %MON forcing_fu_min               =  -1.9747318923473E-01
(PID.TID 0000.0001) %MON forcing_fu_mean              =   1.7033439246477E-02
(PID.TID 0000.0001) %MON forcing_fu_sd                =   9.0494937497899E-02
(PID.TID 0000.0001) %MON forcing_fu_del2              =   6.7697458152225E-04
(PID.TID 0000.0001) %MON forcing_fv_max               =   1.8480933904648E-01
(PID.TID 0000.0001) %MON forcing_fv_min               =  -1.6478836735090E-01
(PID.TID 0000.0001) %MON forcing_fv_mean              =  -6.4988549670934E-03
(PID.TID 0000.0001) %MON forcing_fv_sd                =   4.4598978531363E-02
(PID.TID 0000.0001) %MON forcing_fv_del2              =   4.7620990539496E-04
(PID.TID 0000.0001) %MON trAdv_CFL_u_max              =   3.6886148139571E-02
(PID.TID 0000.0001) %MON trAdv_CFL_v_max              =   2.1482379723866E-02
(PID.TID 0000.0001) %MON trAdv_CFL_w_max              =   3.9745849272047E-02
(PID.TID 0000.0001) %MON advcfl_uvel_max              =   3.9098451291278E-02
(PID.TID 0000.0001) %MON advcfl_vvel_max              =   2.0613200130088E-02
(PID.TID 0000.0001) %MON advcfl_wvel_max              =   3.1325296930541E-02
(PID.TID 0000.0001) %MON advcfl_W_hf_max              =   3.8037860558514E-02
(PID.TID 0000.0001) %MON pe_b_mean                    =   3.9713759238536E-04
(PID.TID 0000.0001) %MON ke_max                       =   1.3849855616290E-02
(PID.TID 0000.0001) %MON ke_mean                      =   8.8561547829241E-05
(PID.TID 0000.0001) %MON ke_vol                       =   1.3226782436723E+18
(PID.TID 0000.0001) %MON vort_r_min                   =  -3.7416761072386E-07
(PID.TID 0000.0001) %MON vort_r_max                   =   4.1492250607225E-07
(PID.TID 0000.0001) %MON vort_a_mean                  =  -2.5274807065346E-05
(PID.TID 0000.0001) %MON vort_a_sd                    =   7.3604495549575E-05
(PID.TID 0000.0001) %MON vort_p_mean                  =  -3.1845655381027E-05
(PID.TID 0000.0001) %MON vort_p_sd                    =   1.3162501502352E-04
(PID.TID 0000.0001) %MON surfExpan_theta_mean         =   1.8260276542382E-07
(PID.TID 0000.0001) %MON surfExpan_salt_mean          =   5.2375397207133E-08
(PID.TID 0000.0001) // =======================================================
(PID.TID 0000.0001) // End MONITOR dynamic field statistics
(PID.TID 0000.0001) // =======================================================
 EXTERNAL_FIELDS_LOAD,        35 : iP,iLd,i0,i1=    1    2    1    2 ; Wght=  0.3333333333  0.6666666667
 EXTERNAL_FIELDS_LOAD: (fu0,1),fu,fv= -3.5633E-02 -1.4435E-02 -2.1501E-02 -3.0843E-02
 EXTERNAL_FIELDS_LOAD: SST,SSS,Q,E-P= -3.5096E-02  3.4519E+01  2.4891E+02  9.4637E-06
DEBUG_STATS_RL:          Uvel (THERMODYNAMICS)  min= -1.59433692237885E-01
DEBUG_STATS_RL:          Uvel (THERMODYNAMICS)  max=  1.11884390846861E-01
DEBUG_STATS_RL:          Uvel (THERMODYNAMICS) mean=  1.81149397375087E-03
DEBUG_STATS_RL:          Uvel (THERMODYNAMICS) S.D.=  1.85278915384036E-02
DEBUG_STATS_RL:          Vvel (THERMODYNAMICS)  min= -1.06098310563105E-01
DEBUG_STATS_RL:          Vvel (THERMODYNAMICS)  max=  1.03461926995704E-01
DEBUG_STATS_RL:          Vvel (THERMODYNAMICS) mean= -3.00650976321935E-04
DEBUG_STATS_RL:          Vvel (THERMODYNAMICS) S.D.=  1.28679834819806E-02
DEBUG_STATS_RL:          Wvel (THERMODYNAMICS)  min= -1.08974425902581E-04
DEBUG_STATS_RL:          Wvel (THERMODYNAMICS)  max=  9.01850599245999E-05
DEBUG_STATS_RL:          Wvel (THERMODYNAMICS) mean= -3.43118160396439E-07
DEBUG_STATS_RL:          Wvel (THERMODYNAMICS) S.D.=  1.23094004518620E-05
DEBUG_STATS_RL:         Theta (THERMODYNAMICS)  min= -2.00310614556296E+00
DEBUG_STATS_RL:         Theta (THERMODYNAMICS)  max=  3.00956940613030E+01
DEBUG_STATS_RL:         Theta (THERMODYNAMICS) mean=  3.21160452968742E+00
DEBUG_STATS_RL:         Theta (THERMODYNAMICS) S.D.=  5.86129792459051E+00
DEBUG_STATS_RL:          Salt (THERMODYNAMICS)  min= -1.56125112837913E-17
DEBUG_STATS_RL:          Salt (THERMODYNAMICS)  max=  3.74547072688664E+01
DEBUG_STATS_RL:          Salt (THERMODYNAMICS) mean=  1.88448258404322E+01
DEBUG_STATS_RL:          Salt (THERMODYNAMICS) S.D.=  1.73003448044198E+01
DEBUG_STATS_RL:         GtNm1 (THERMODYNAMICS)  min= -2.90400634333936E-06
DEBUG_STATS_RL:         GtNm1 (THERMODYNAMICS)  max=  2.22945857689768E-06
DEBUG_STATS_RL:         GtNm1 (THERMODYNAMICS) mean=  1.15416661253766E-08
DEBUG_STATS_RL:         GtNm1 (THERMODYNAMICS) S.D.=  2.01489759397103E-07
DEBUG_STATS_RL:         GsNm1 (THERMODYNAMICS)  min= -4.52923049734024E-07
DEBUG_STATS_RL:         GsNm1 (THERMODYNAMICS)  max=  3.02770355949529E-07
DEBUG_STATS_RL:         GsNm1 (THERMODYNAMICS) mean= -3.53417899835189E-10
DEBUG_STATS_RL:         GsNm1 (THERMODYNAMICS) S.D.=  1.73253084664356E-08
DEBUG_STATS_RL:                EtaN (DYNAMICS)  min= -1.63630809142246E+00
DEBUG_STATS_RL:                EtaN (DYNAMICS)  max=  8.83641755579493E-01
DEBUG_STATS_RL:                EtaN (DYNAMICS) mean= -1.68513337721653E-01
DEBUG_STATS_RL:                EtaN (DYNAMICS) S.D.=  6.41873839412766E-01
DEBUG_STATS_RL:                Uvel (DYNAMICS)  min= -1.59433692237885E-01
DEBUG_STATS_RL:                Uvel (DYNAMICS)  max=  1.11884390846861E-01
DEBUG_STATS_RL:                Uvel (DYNAMICS) mean=  1.81149397375087E-03
DEBUG_STATS_RL:                Uvel (DYNAMICS) S.D.=  1.85278915384036E-02
DEBUG_STATS_RL:                Vvel (DYNAMICS)  min= -1.06098310563105E-01
DEBUG_STATS_RL:                Vvel (DYNAMICS)  max=  1.03461926995704E-01
DEBUG_STATS_RL:                Vvel (DYNAMICS) mean= -3.00650976321935E-04
DEBUG_STATS_RL:                Vvel (DYNAMICS) S.D.=  1.28679834819806E-02
DEBUG_STATS_RL:                Wvel (DYNAMICS)  min= -1.08974425902581E-04
DEBUG_STATS_RL:                Wvel (DYNAMICS)  max=  9.01850599245999E-05
DEBUG_STATS_RL:                Wvel (DYNAMICS) mean= -3.43118160396439E-07
DEBUG_STATS_RL:                Wvel (DYNAMICS) S.D.=  1.23094004518620E-05
DEBUG_STATS_RL:               Theta (DYNAMICS)  min= -2.00310614556296E+00
DEBUG_STATS_RL:               Theta (DYNAMICS)  max=  3.00956940613030E+01
DEBUG_STATS_RL:               Theta (DYNAMICS) mean=  3.21160452968742E+00
DEBUG_STATS_RL:               Theta (DYNAMICS) S.D.=  5.86129792459051E+00
DEBUG_STATS_RL:                Salt (DYNAMICS)  min= -1.56125112837913E-17
DEBUG_STATS_RL:                Salt (DYNAMICS)  max=  3.74547072688664E+01
DEBUG_STATS_RL:                Salt (DYNAMICS) mean=  1.88448258404322E+01
DEBUG_STATS_RL:                Salt (DYNAMICS) S.D.=  1.73003448044198E+01
DEBUG_STATS_RL:                  Gu (DYNAMICS)  min= -1.58393491020231E-01
DEBUG_STATS_RL:                  Gu (DYNAMICS)  max=  1.17190535397371E-01
DEBUG_STATS_RL:                  Gu (DYNAMICS) mean=  1.93231181094221E-03
DEBUG_STATS_RL:                  Gu (DYNAMICS) S.D.=  1.95494282521862E-02
DEBUG_STATS_RL:                  Gv (DYNAMICS)  min= -1.02906107576287E-01
DEBUG_STATS_RL:                  Gv (DYNAMICS)  max=  1.00064942259173E-01
DEBUG_STATS_RL:                  Gv (DYNAMICS) mean=  1.90800195399752E-03
DEBUG_STATS_RL:                  Gv (DYNAMICS) S.D.=  1.32299907524737E-02
DEBUG_STATS_RL:               GuNm1 (DYNAMICS)  min= -7.94088135700051E-06
DEBUG_STATS_RL:               GuNm1 (DYNAMICS)  max=  7.94043162532369E-06
DEBUG_STATS_RL:               GuNm1 (DYNAMICS) mean= -1.90502395357431E-08
DEBUG_STATS_RL:               GuNm1 (DYNAMICS) S.D.=  1.18325734568079E-06
DEBUG_STATS_RL:               GvNm1 (DYNAMICS)  min= -1.05055316309177E-05
DEBUG_STATS_RL:               GvNm1 (DYNAMICS)  max=  1.64005564345293E-05
DEBUG_STATS_RL:               GvNm1 (DYNAMICS) mean=  7.53696301406971E-07
DEBUG_STATS_RL:               GvNm1 (DYNAMICS) S.D.=  2.62737771040909E-06
DEBUG_STATS_RL:               GtNm1 (DYNAMICS)  min= -2.90400634333936E-06
DEBUG_STATS_RL:               GtNm1 (DYNAMICS)  max=  2.22945857689768E-06
DEBUG_STATS_RL:               GtNm1 (DYNAMICS) mean=  1.15416661253766E-08
DEBUG_STATS_RL:               GtNm1 (DYNAMICS) S.D.=  2.01489759397103E-07
DEBUG_STATS_RL:               GsNm1 (DYNAMICS)  min= -4.52923049734024E-07
DEBUG_STATS_RL:               GsNm1 (DYNAMICS)  max=  3.02770355949529E-07
DEBUG_STATS_RL:               GsNm1 (DYNAMICS) mean= -3.53417899835189E-10
DEBUG_STATS_RL:               GsNm1 (DYNAMICS) S.D.=  1.73253084664356E-08
DEBUG_STATS_RL:    cg2d_b (SOLVE_FOR_PRESSURE)  min= -1.98010462759478E+04
DEBUG_STATS_RL:    cg2d_b (SOLVE_FOR_PRESSURE)  max=  1.92989053552330E+04
DEBUG_STATS_RL:    cg2d_b (SOLVE_FOR_PRESSURE) mean=  2.57598577498926E+00
DEBUG_STATS_RL:    cg2d_b (SOLVE_FOR_PRESSURE) S.D.=  3.71362502474127E+03
 cg2d: Sum(rhs),rhsMax =   3.01166260913428E-01  1.30058573523467E+00
(PID.TID 0000.0001)  cg2d: iter=     1 ; resid.=  1.00148470304955E-01
(PID.TID 0000.0001)  cg2d: iter=     2 ; resid.=  5.44688404247806E-02
(PID.TID 0000.0001)  cg2d: iter=     3 ; resid.=  4.33456987005450E-02
(PID.TID 0000.0001)  cg2d: iter=     4 ; resid.=  4.56824805653728E-02
(PID.TID 0000.0001)  cg2d: iter=     5 ; resid.=  4.61132421994610E-02
(PID.TID 0000.0001)  cg2d: iter=     6 ; resid.=  4.00323772499047E-02
(PID.TID 0000.0001)  cg2d: iter=     7 ; resid.=  3.23438077625583E-02
(PID.TID 0000.0001)  cg2d: iter=     8 ; resid.=  2.57465971228077E-02
(PID.TID 0000.0001)  cg2d: iter=     9 ; resid.=  2.02226570433306E-02
(PID.TID 0000.0001)  cg2d: iter=    10 ; resid.=  1.67338296749310E-02
(PID.TID 0000.0001)  cg2d: iter=    11 ; resid.=  1.43950536396687E-02
(PID.TID 0000.0001)  cg2d: iter=    12 ; resid.=  1.21664629817239E-02
(PID.TID 0000.0001)  cg2d: iter=    13 ; resid.=  1.03278484368115E-02
(PID.TID 0000.0001)  cg2d: iter=    14 ; resid.=  8.85038476761963E-03
(PID.TID 0000.0001)  cg2d: iter=    15 ; resid.=  7.21273189132169E-03
(PID.TID 0000.0001)  cg2d: iter=    16 ; resid.=  6.05040115591847E-03
(PID.TID 0000.0001)  cg2d: iter=    17 ; resid.=  5.68100358551383E-03
(PID.TID 0000.0001)  cg2d: iter=    18 ; resid.=  4.94593668587594E-03
(PID.TID 0000.0001)  cg2d: iter=    19 ; resid.=  3.88529172534682E-03
(PID.TID 0000.0001)  cg2d: iter=    20 ; resid.=  3.05659648611129E-03
(PID.TID 0000.0001)  cg2d: iter=    21 ; resid.=  2.32180934181645E-03
(PID.TID 0000.0001)  cg2d: iter=    22 ; resid.=  1.91621064662902E-03
(PID.TID 0000.0001)  cg2d: iter=    23 ; resid.=  1.69968918945528E-03
(PID.TID 0000.0001)  cg2d: iter=    24 ; resid.=  1.48986805740602E-03
(PID.TID 0000.0001)  cg2d: iter=    25 ; resid.=  1.27588908746621E-03
(PID.TID 0000.0001)  cg2d: iter=    26 ; resid.=  1.06529966587409E-03
(PID.TID 0000.0001)  cg2d: iter=    27 ; resid.=  9.08829961213832E-04
(PID.TID 0000.0001)  cg2d: iter=    28 ; resid.=  7.94979107314323E-04
(PID.TID 0000.0001)  cg2d: iter=    29 ; resid.=  6.38730303812006E-04
(PID.TID 0000.0001)  cg2d: iter=    30 ; resid.=  4.82621225278850E-04
(PID.TID 0000.0001)  cg2d: iter=    31 ; resid.=  3.91325427969668E-04
(PID.TID 0000.0001)  cg2d: iter=    32 ; resid.=  3.16301543422070E-04
(PID.TID 0000.0001)  cg2d: iter=    33 ; resid.=  2.60012782932336E-04
(PID.TID 0000.0001)  cg2d: iter=    34 ; resid.=  1.96458073919054E-04
(PID.TID 0000.0001)  cg2d: iter=    35 ; resid.=  1.56925678973903E-04
(PID.TID 0000.0001)  cg2d: iter=    36 ; resid.=  1.43383789683846E-04
(PID.TID 0000.0001)  cg2d: iter=    37 ; resid.=  1.37906942151752E-04
(PID.TID 0000.0001)  cg2d: iter=    38 ; resid.=  1.28714335799308E-04
(PID.TID 0000.0001)  cg2d: iter=    39 ; resid.=  1.07811513275879E-04
(PID.TID 0000.0001)  cg2d: iter=    40 ; resid.=  8.85626481391878E-05
(PID.TID 0000.0001)  cg2d: iter=    41 ; resid.=  7.20712402624147E-05
(PID.TID 0000.0001)  cg2d: iter=    42 ; resid.=  6.04888958463987E-05
(PID.TID 0000.0001)  cg2d: iter=    43 ; resid.=  5.34347127397009E-05
(PID.TID 0000.0001)  cg2d: iter=    44 ; resid.=  4.67178610937572E-05
(PID.TID 0000.0001)  cg2d: iter=    45 ; resid.=  3.85158401890504E-05
(PID.TID 0000.0001)  cg2d: iter=    46 ; resid.=  3.09039899727156E-05
(PID.TID 0000.0001)  cg2d: iter=    47 ; resid.=  2.37666372053023E-05
(PID.TID 0000.0001)  cg2d: iter=    48 ; resid.=  1.86681009928208E-05
(PID.TID 0000.0001)  cg2d: iter=    49 ; resid.=  1.43692042526934E-05
(PID.TID 0000.0001)  cg2d: iter=    50 ; resid.=  1.15696073819782E-05
(PID.TID 0000.0001)  cg2d: iter=    51 ; resid.=  9.74763649983672E-06
(PID.TID 0000.0001)  cg2d: iter=    52 ; resid.=  9.13534830119398E-06
(PID.TID 0000.0001)  cg2d: iter=    53 ; resid.=  8.41790249317186E-06
(PID.TID 0000.0001)  cg2d: iter=    54 ; resid.=  6.72896914823650E-06
(PID.TID 0000.0001)  cg2d: iter=    55 ; resid.=  5.45141985618049E-06
(PID.TID 0000.0001)  cg2d: iter=    56 ; resid.=  4.59814921380481E-06
(PID.TID 0000.0001)  cg2d: iter=    57 ; resid.=  3.79069385075312E-06
(PID.TID 0000.0001)  cg2d: iter=    58 ; resid.=  3.05954561465303E-06
(PID.TID 0000.0001)  cg2d: iter=    59 ; resid.=  2.39904905148703E-06
(PID.TID 0000.0001)  cg2d: iter=    60 ; resid.=  1.68907025314588E-06
(PID.TID 0000.0001)  cg2d: iter=    61 ; resid.=  1.21333720379048E-06
(PID.TID 0000.0001)  cg2d: iter=    62 ; resid.=  9.27381725592539E-07
(PID.TID 0000.0001)  cg2d: iter=    63 ; resid.=  7.09584542346564E-07
(PID.TID 0000.0001)  cg2d: iter=    64 ; resid.=  5.70796900384595E-07
(PID.TID 0000.0001)  cg2d: iter=    65 ; resid.=  4.57567638874693E-07
(PID.TID 0000.0001)  cg2d: iter=    66 ; resid.=  3.96819762877415E-07
(PID.TID 0000.0001)  cg2d: iter=    67 ; resid.=  3.39870912513155E-07
(PID.TID 0000.0001)  cg2d: iter=    68 ; resid.=  2.85029483010279E-07
(PID.TID 0000.0001)  cg2d: iter=    69 ; resid.=  2.22978544346025E-07
(PID.TID 0000.0001)  cg2d: iter=    70 ; resid.=  1.72914322196826E-07
(PID.TID 0000.0001)  cg2d: iter=    71 ; resid.=  1.41942933688294E-07
(PID.TID 0000.0001)  cg2d: iter=    72 ; resid.=  1.21462651386876E-07
(PID.TID 0000.0001)  cg2d: iter=    73 ; resid.=  1.09622438381964E-07
(PID.TID 0000.0001)  cg2d: iter=    74 ; resid.=  9.54733174855444E-08
(PID.TID 0000.0001)  cg2d: iter=    75 ; resid.=  8.73057494412152E-08
(PID.TID 0000.0001)  cg2d: iter=    76 ; resid.=  7.43953295892108E-08
(PID.TID 0000.0001)  cg2d: iter=    77 ; resid.=  5.94244169039467E-08
(PID.TID 0000.0001)  cg2d: iter=    78 ; resid.=  4.67433783301028E-08
(PID.TID 0000.0001)  cg2d: iter=    79 ; resid.=  3.91408522243949E-08
(PID.TID 0000.0001)  cg2d: iter=    80 ; resid.=  3.31234976689834E-08
(PID.TID 0000.0001)  cg2d: iter=    81 ; resid.=  2.59682369054116E-08
(PID.TID 0000.0001)  cg2d: iter=    82 ; resid.=  1.90823753482228E-08
(PID.TID 0000.0001)  cg2d: iter=    83 ; resid.=  1.34096060630360E-08
(PID.TID 0000.0001)  cg2d: iter=    84 ; resid.=  1.00490576489455E-08
(PID.TID 0000.0001)  cg2d: iter=    85 ; resid.=  7.20964626199688E-09
(PID.TID 0000.0001)  cg2d: iter=    86 ; resid.=  5.13720301410249E-09
(PID.TID 0000.0001)  cg2d: iter=    87 ; resid.=  3.98158159625187E-09
(PID.TID 0000.0001)  cg2d: iter=    88 ; resid.=  3.00854639596996E-09
(PID.TID 0000.0001)  cg2d: iter=    89 ; resid.=  2.32150775497065E-09
(PID.TID 0000.0001)  cg2d: iter=    90 ; resid.=  1.98568050777514E-09
(PID.TID 0000.0001)  cg2d: iter=    91 ; resid.=  1.81209753575413E-09
(PID.TID 0000.0001)  cg2d: iter=    92 ; resid.=  1.56512452423036E-09
(PID.TID 0000.0001)  cg2d: iter=    93 ; resid.=  1.27830745714905E-09
(PID.TID 0000.0001)  cg2d: iter=    94 ; resid.=  1.03558711311865E-09
(PID.TID 0000.0001)  cg2d: iter=    95 ; resid.=  8.88629894602864E-10
(PID.TID 0000.0001)  cg2d: iter=    96 ; resid.=  7.79237410222330E-10
(PID.TID 0000.0001)  cg2d: iter=    97 ; resid.=  6.39944384617205E-10
(PID.TID 0000.0001)  cg2d: iter=    98 ; resid.=  4.81051019785398E-10
(PID.TID 0000.0001)  cg2d: iter=    99 ; resid.=  3.30087664878864E-10
(PID.TID 0000.0001)  cg2d: iter=   100 ; resid.=  2.37505060683509E-10
(PID.TID 0000.0001)  cg2d: iter=   101 ; resid.=  1.90021417095841E-10
(PID.TID 0000.0001)  cg2d: iter=   102 ; resid.=  1.74051017192921E-10
(PID.TID 0000.0001)  cg2d: iter=   103 ; resid.=  1.44094336910956E-10
(PID.TID 0000.0001)  cg2d: iter=   104 ; resid.=  1.14039738930760E-10
(PID.TID 0000.0001)  cg2d: iter=   105 ; resid.=  9.08820587652924E-11
(PID.TID 0000.0001)  cg2d: iter=   106 ; resid.=  7.23907763913478E-11
(PID.TID 0000.0001)  cg2d: iter=   107 ; resid.=  5.74240158386999E-11
(PID.TID 0000.0001)  cg2d: iter=   108 ; resid.=  4.45980367553864E-11
(PID.TID 0000.0001)  cg2d: iter=   109 ; resid.=  3.37344345637538E-11
(PID.TID 0000.0001)  cg2d: iter=   110 ; resid.=  2.36727336691339E-11
(PID.TID 0000.0001)  cg2d: iter=   111 ; resid.=  1.64476987596874E-11
(PID.TID 0000.0001)  cg2d: iter=   112 ; resid.=  1.25615644728348E-11
(PID.TID 0000.0001)  cg2d: iter=   113 ; resid.=  1.00218113190295E-11
(PID.TID 0000.0001)  cg2d: iter=   114 ; resid.=  7.60499487972508E-12
(PID.TID 0000.0001)  cg2d: iter=   115 ; resid.=  6.07703242420575E-12
(PID.TID 0000.0001)  cg2d: iter=   116 ; resid.=  4.71274224137563E-12
(PID.TID 0000.0001)  cg2d: iter=   117 ; resid.=  3.70382370445483E-12
(PID.TID 0000.0001)  cg2d: iter=   118 ; resid.=  2.60297563248346E-12
(PID.TID 0000.0001)  cg2d: iter=   119 ; resid.=  2.00316317760971E-12
(PID.TID 0000.0001)  cg2d: iter=   120 ; resid.=  1.68045723413274E-12
(PID.TID 0000.0001)  cg2d: iter=   121 ; resid.=  1.34804928203533E-12
(PID.TID 0000.0001)  cg2d: iter=   122 ; resid.=  1.01028209780384E-12
(PID.TID 0000.0001)  cg2d: iter=   123 ; resid.=  6.96335250787650E-13
(PID.TID 0000.0001)  cg2d: iter=   124 ; resid.=  4.71889361614980E-13
(PID.TID 0000.0001)  cg2d: iter=   125 ; resid.=  3.45368667240186E-13
(PID.TID 0000.0001)  cg2d: iter=   126 ; resid.=  2.82350409721216E-13
(PID.TID 0000.0001)  cg2d: iter=   127 ; resid.=  2.17673265965331E-13
(PID.TID 0000.0001)  cg2d: iter=   128 ; resid.=  1.58633863806093E-13
(PID.TID 0000.0001)  cg2d: iter=   129 ; resid.=  1.07848567398495E-13
(PID.TID 0000.0001)  cg2d: iter=   130 ; resid.=  8.39111398269748E-14
DEBUG_STATS_RL:    cg2d_x (SOLVE_FOR_PRESSURE)  min= -1.59443511323341E+01
DEBUG_STATS_RL:    cg2d_x (SOLVE_FOR_PRESSURE)  max=  8.56663725876524E+00
DEBUG_STATS_RL:    cg2d_x (SOLVE_FOR_PRESSURE) mean= -1.65644807559557E+00
DEBUG_STATS_RL:    cg2d_x (SOLVE_FOR_PRESSURE) S.D.=  6.29967783864039E+00
(PID.TID 0000.0001)      cg2d_init_res =   4.08799286160578E-01
(PID.TID 0000.0001)      cg2d_iters(min,last) =      -1     130
(PID.TID 0000.0001)      cg2d_last_res =   8.39111398269748E-14
(PID.TID 0000.0001) // =======================================================
(PID.TID 0000.0001) // Begin MONITOR dynamic field statistics
(PID.TID 0000.0001) // =======================================================
(PID.TID 0000.0001) %MON time_tsnumber                =                    36
(PID.TID 0000.0001) %MON time_secondsf                =   3.1104000000000E+06
(PID.TID 0000.0001) %MON dynstat_eta_max              =   8.7325558193328E-01
(PID.TID 0000.0001) %MON dynstat_eta_min              =  -1.6253161195040E+00
(PID.TID 0000.0001) %MON dynstat_eta_mean             =  -2.6877217445102E-03
(PID.TID 0000.0001) %MON dynstat_eta_sd               =   5.5680986929087E-01
(PID.TID 0000.0001) %MON dynstat_eta_del2             =   2.1613910781564E-03
(PID.TID 0000.0001) %MON dynstat_uvel_max             =   1.2096373746743E-01
(PID.TID 0000.0001) %MON dynstat_uvel_min             =  -1.5765808135635E-01
(PID.TID 0000.0001) %MON dynstat_uvel_mean            =   1.1137886311853E-03
(PID.TID 0000.0001) %MON dynstat_uvel_sd              =   1.1532582620071E-02
(PID.TID 0000.0001) %MON dynstat_uvel_del2            =   7.7317647666090E-05
(PID.TID 0000.0001) %MON dynstat_vvel_max             =   1.0376366272270E-01
(PID.TID 0000.0001) %MON dynstat_vvel_min             =  -1.0796040083310E-01
(PID.TID 0000.0001) %MON dynstat_vvel_mean            =   1.3991596903141E-05
(PID.TID 0000.0001) %MON dynstat_vvel_sd              =   8.4715530657030E-03
(PID.TID 0000.0001) %MON dynstat_vvel_del2            =   7.4626125982863E-05
(PID.TID 0000.0001) %MON dynstat_wvel_max             =   8.6975208968978E-05
(PID.TID 0000.0001) %MON dynstat_wvel_min             =  -1.0911101808874E-04
(PID.TID 0000.0001) %MON dynstat_wvel_mean            =  -2.4978739087190E-22
(PID.TID 0000.0001) %MON dynstat_wvel_sd              =   1.3748448527248E-05
(PID.TID 0000.0001) %MON dynstat_wvel_del2            =   1.5657673756802E-07
(PID.TID 0000.0001) %MON dynstat_theta_max            =   3.0095694061303E+01
(PID.TID 0000.0001) %MON dynstat_theta_min            =  -2.0031061455630E+00
(PID.TID 0000.0001) %MON dynstat_theta_mean           =   3.6216632694370E+00
(PID.TID 0000.0001) %MON dynstat_theta_sd             =   4.4184410945094E+00
(PID.TID 0000.0001) %MON dynstat_theta_del2           =   4.7742602386523E-03
(PID.TID 0000.0001) %MON dynstat_salt_max             =   3.7454707268866E+01
(PID.TID 0000.0001) %MON dynstat_salt_min             =   2.9820727881476E+01
(PID.TID 0000.0001) %MON dynstat_salt_mean            =   3.4717980135435E+01
(PID.TID 0000.0001) %MON dynstat_salt_sd              =   2.9628479948066E-01
(PID.TID 0000.0001) %MON dynstat_salt_del2            =   9.8853555387058E-04
(PID.TID 0000.0001) %MON dynstat_sst_max              =   3.0095694061303E+01
(PID.TID 0000.0001) %MON dynstat_sst_min              =  -2.0031061455630E+00
(PID.TID 0000.0001) %MON dynstat_sst_mean             =   1.8791733899860E+01
(PID.TID 0000.0001) %MON dynstat_sst_sd               =   9.0306979272024E+00
(PID.TID 0000.0001) %MON dynstat_sst_del2             =   2.6737746706172E-02
(PID.TID 0000.0001) %MON dynstat_sss_max              =   3.7431788822439E+01
(PID.TID 0000.0001) %MON dynstat_sss_min              =   2.9820727881476E+01
(PID.TID 0000.0001) %MON dynstat_sss_mean             =   3.4844287746610E+01
(PID.TID 0000.0001) %MON dynstat_sss_sd               =   9.7619199970609E-01
(PID.TID 0000.0001) %MON dynstat_sss_del2             =   7.8402775942677E-03
(PID.TID 0000.0001) %MON forcing_qnet_max             =   3.7523188273112E+02
(PID.TID 0000.0001) %MON forcing_qnet_min             =  -1.7522916158040E+02
(PID.TID 0000.0001) %MON forcing_qnet_mean            =  -1.4814342652977E+01
(PID.TID 0000.0001) %MON forcing_qnet_sd              =   8.9107408305075E+01
(PID.TID 0000.0001) %MON forcing_qnet_del2            =   9.6203928083516E-01
(PID.TID 0000.0001) %MON forcing_qsw_max              =   0.0000000000000E+00
(PID.TID 0000.0001) %MON forcing_qsw_min              =   0.0000000000000E+00
(PID.TID 0000.0001) %MON forcing_qsw_mean             =   0.0000000000000E+00
(PID.TID 0000.0001) %MON forcing_qsw_sd               =   0.0000000000000E+00
(PID.TID 0000.0001) %MON forcing_qsw_del2             =   0.0000000000000E+00
(PID.TID 0000.0001) %MON forcing_empmr_max            =   7.5892444328929E-05
(PID.TID 0000.0001) %MON forcing_empmr_min            =  -7.7748841439037E-05
(PID.TID 0000.0001) %MON forcing_empmr_mean           =   9.3658500730980E-07
(PID.TID 0000.0001) %MON forcing_empmr_sd             =   2.8071739080641E-05
(PID.TID 0000.0001) %MON forcing_empmr_del2           =   3.5384713842938E-07
(PID.TID 0000.0001) %MON forcing_fu_max               =   2.9076394438744E-01
(PID.TID 0000.0001) %MON forcing_fu_min               =  -1.9913311302662E-01
(PID.TID 0000.0001) %MON forcing_fu_mean              =   1.7087739461946E-02
(PID.TID 0000.0001) %MON forcing_fu_sd                =   9.0639654675392E-02
(PID.TID 0000.0001) %MON forcing_fu_del2              =   6.8057641695719E-04
(PID.TID 0000.0001) %MON forcing_fv_max               =   1.8370781838894E-01
(PID.TID 0000.0001) %MON forcing_fv_min               =  -1.6796026627223E-01
(PID.TID 0000.0001) %MON forcing_fv_mean              =  -6.5641158738086E-03
(PID.TID 0000.0001) %MON forcing_fv_sd                =   4.4559893516707E-02
(PID.TID 0000.0001) %MON forcing_fv_del2              =   4.8000739041033E-04
(PID.TID 0000.0001) %MON trAdv_CFL_u_max              =   3.9106392466372E-02
(PID.TID 0000.0001) %MON trAdv_CFL_v_max              =   2.0731700948503E-02
(PID.TID 0000.0001) %MON trAdv_CFL_w_max              =   3.8037860558514E-02
(PID.TID 0000.0001) %MON advcfl_uvel_max              =   4.0808286029756E-02
(PID.TID 0000.0001) %MON advcfl_vvel_max              =   2.0974974405210E-02
(PID.TID 0000.0001) %MON advcfl_wvel_max              =   2.9758468242084E-02
(PID.TID 0000.0001) %MON advcfl_W_hf_max              =   3.6135282865387E-02
(PID.TID 0000.0001) %MON pe_b_mean                    =   3.9673924992506E-04
(PID.TID 0000.0001) %MON ke_max                       =   1.3838151478008E-02
(PID.TID 0000.0001) %MON ke_mean                      =   9.3207247109124E-05
(PID.TID 0000.0001) %MON ke_vol                       =   1.3226782436723E+18
(PID.TID 0000.0001) %MON vort_r_min                   =  -3.8954745730167E-07
(PID.TID 0000.0001) %MON vort_r_max                   =   4.1548514095446E-07
(PID.TID 0000.0001) %MON vort_a_mean                  =  -2.5274807073150E-05
(PID.TID 0000.0001) %MON vort_a_sd                    =   7.3604501120881E-05
(PID.TID 0000.0001) %MON vort_p_mean                  =  -3.1845655390861E-05
(PID.TID 0000.0001) %MON vort_p_sd                    =   1.3162490988571E-04
(PID.TID 0000.0001) %MON surfExpan_theta_mean         =   1.7643957956501E-07
(PID.TID 0000.0001) %MON surfExpan_salt_mean          =   5.2638868854438E-08
(PID.TID 0000.0001) // =======================================================
(PID.TID 0000.0001) // End MONITOR dynamic field statistics
(PID.TID 0000.0001) // =======================================================
 EXTERNAL_FIELDS_LOAD,        36 : iP,iLd,i0,i1=    1    2    1    2 ; Wght=  0.3000000000  0.7000000000
 EXTERNAL_FIELDS_LOAD: (fu0,1),fu,fv= -3.5633E-02 -1.4435E-02 -2.0794E-02 -2.9522E-02
 EXTERNAL_FIELDS_LOAD: SST,SSS,Q,E-P= -8.4772E-02  3.4509E+01  2.4807E+02  9.3550E-06
DEBUG_STATS_RL:          Uvel (THERMODYNAMICS)  min= -1.57658081356355E-01
DEBUG_STATS_RL:          Uvel (THERMODYNAMICS)  max=  1.20963737467430E-01
DEBUG_STATS_RL:          Uvel (THERMODYNAMICS) mean=  2.11076758573058E-03
DEBUG_STATS_RL:          Uvel (THERMODYNAMICS) S.D.=  1.92603329381930E-02
DEBUG_STATS_RL:          Vvel (THERMODYNAMICS)  min= -1.07960400833100E-01
DEBUG_STATS_RL:          Vvel (THERMODYNAMICS)  max=  1.03763662722700E-01
DEBUG_STATS_RL:          Vvel (THERMODYNAMICS) mean= -3.41082041975794E-04
DEBUG_STATS_RL:          Vvel (THERMODYNAMICS) S.D.=  1.30276616926511E-02
DEBUG_STATS_RL:          Wvel (THERMODYNAMICS)  min= -1.09111018088744E-04
DEBUG_STATS_RL:          Wvel (THERMODYNAMICS)  max=  8.69752089689777E-05
DEBUG_STATS_RL:          Wvel (THERMODYNAMICS) mean= -3.73986153493474E-07
DEBUG_STATS_RL:          Wvel (THERMODYNAMICS) S.D.=  1.23411851456789E-05
DEBUG_STATS_RL:         Theta (THERMODYNAMICS)  min= -2.00197002146653E+00
DEBUG_STATS_RL:         Theta (THERMODYNAMICS)  max=  3.01180509266455E+01
DEBUG_STATS_RL:         Theta (THERMODYNAMICS) mean=  3.21219682288214E+00
DEBUG_STATS_RL:         Theta (THERMODYNAMICS) S.D.=  5.86191028486327E+00
DEBUG_STATS_RL:          Salt (THERMODYNAMICS)  min= -1.56125112837913E-17
DEBUG_STATS_RL:          Salt (THERMODYNAMICS)  max=  3.74548048062081E+01
DEBUG_STATS_RL:          Salt (THERMODYNAMICS) mean=  1.88448186690045E+01
DEBUG_STATS_RL:          Salt (THERMODYNAMICS) S.D.=  1.73003389430746E+01
DEBUG_STATS_RL:         GtNm1 (THERMODYNAMICS)  min= -3.06169593500665E-06
DEBUG_STATS_RL:         GtNm1 (THERMODYNAMICS)  max=  2.48070590604901E-06
DEBUG_STATS_RL:         GtNm1 (THERMODYNAMICS) mean=  1.24401265007263E-08
DEBUG_STATS_RL:         GtNm1 (THERMODYNAMICS) S.D.=  2.02166826862861E-07
DEBUG_STATS_RL:         GsNm1 (THERMODYNAMICS)  min= -4.90878200211525E-07
DEBUG_STATS_RL:         GsNm1 (THERMODYNAMICS)  max=  3.36391294768658E-07
DEBUG_STATS_RL:         GsNm1 (THERMODYNAMICS) mean= -2.60020412260748E-10
DEBUG_STATS_RL:         GsNm1 (THERMODYNAMICS) S.D.=  1.75949490933300E-08
DEBUG_STATS_RL:                EtaN (DYNAMICS)  min= -1.62531611950398E+00
DEBUG_STATS_RL:                EtaN (DYNAMICS)  max=  8.73255581933285E-01
DEBUG_STATS_RL:                EtaN (DYNAMICS) mean= -1.68853014841548E-01
DEBUG_STATS_RL:                EtaN (DYNAMICS) S.D.=  6.42168994764569E-01
DEBUG_STATS_RL:                Uvel (DYNAMICS)  min= -1.57658081356355E-01
DEBUG_STATS_RL:                Uvel (DYNAMICS)  max=  1.20963737467430E-01
DEBUG_STATS_RL:                Uvel (DYNAMICS) mean=  2.11076758573058E-03
DEBUG_STATS_RL:                Uvel (DYNAMICS) S.D.=  1.92603329381930E-02
DEBUG_STATS_RL:                Vvel (DYNAMICS)  min= -1.07960400833100E-01
DEBUG_STATS_RL:                Vvel (DYNAMICS)  max=  1.03763662722700E-01
DEBUG_STATS_RL:                Vvel (DYNAMICS) mean= -3.41082041975794E-04
DEBUG_STATS_RL:                Vvel (DYNAMICS) S.D.=  1.30276616926511E-02
DEBUG_STATS_RL:                Wvel (DYNAMICS)  min= -1.09111018088744E-04
DEBUG_STATS_RL:                Wvel (DYNAMICS)  max=  8.69752089689777E-05
DEBUG_STATS_RL:                Wvel (DYNAMICS) mean= -3.73986153493474E-07
DEBUG_STATS_RL:                Wvel (DYNAMICS) S.D.=  1.23411851456789E-05
DEBUG_STATS_RL:               Theta (DYNAMICS)  min= -2.00197002146653E+00
DEBUG_STATS_RL:               Theta (DYNAMICS)  max=  3.01180509266455E+01
DEBUG_STATS_RL:               Theta (DYNAMICS) mean=  3.21219682288214E+00
DEBUG_STATS_RL:               Theta (DYNAMICS) S.D.=  5.86191028486327E+00
DEBUG_STATS_RL:                Salt (DYNAMICS)  min= -1.56125112837913E-17
DEBUG_STATS_RL:                Salt (DYNAMICS)  max=  3.74548048062081E+01
DEBUG_STATS_RL:                Salt (DYNAMICS) mean=  1.88448186690045E+01
DEBUG_STATS_RL:                Salt (DYNAMICS) S.D.=  1.73003389430746E+01
DEBUG_STATS_RL:                  Gu (DYNAMICS)  min= -1.56137759796241E-01
DEBUG_STATS_RL:                  Gu (DYNAMICS)  max=  1.25284362834916E-01
DEBUG_STATS_RL:                  Gu (DYNAMICS) mean=  2.26825863578370E-03
DEBUG_STATS_RL:                  Gu (DYNAMICS) S.D.=  2.03291022441322E-02
DEBUG_STATS_RL:                  Gv (DYNAMICS)  min= -1.04571764853684E-01
DEBUG_STATS_RL:                  Gv (DYNAMICS)  max=  1.01628789716083E-01
DEBUG_STATS_RL:                  Gv (DYNAMICS) mean=  1.93124378120398E-03
DEBUG_STATS_RL:                  Gv (DYNAMICS) S.D.=  1.33049747544250E-02
DEBUG_STATS_RL:               GuNm1 (DYNAMICS)  min= -7.98952986790899E-06
DEBUG_STATS_RL:               GuNm1 (DYNAMICS)  max=  8.01555896545492E-06
DEBUG_STATS_RL:               GuNm1 (DYNAMICS) mean= -1.91813601957532E-08
DEBUG_STATS_RL:               GuNm1 (DYNAMICS) S.D.=  1.17964758071189E-06
DEBUG_STATS_RL:               GvNm1 (DYNAMICS)  min= -1.04101944172772E-05
DEBUG_STATS_RL:               GvNm1 (DYNAMICS)  max=  1.63766539704715E-05
DEBUG_STATS_RL:               GvNm1 (DYNAMICS) mean=  7.52734416179409E-07
DEBUG_STATS_RL:               GvNm1 (DYNAMICS) S.D.=  2.62051411350541E-06
DEBUG_STATS_RL:               GtNm1 (DYNAMICS)  min= -3.06169593500665E-06
DEBUG_STATS_RL:               GtNm1 (DYNAMICS)  max=  2.48070590604901E-06
DEBUG_STATS_RL:               GtNm1 (DYNAMICS) mean=  1.24401265007263E-08
DEBUG_STATS_RL:               GtNm1 (DYNAMICS) S.D.=  2.02166826862861E-07
DEBUG_STATS_RL:               GsNm1 (DYNAMICS)  min= -4.90878200211525E-07
DEBUG_STATS_RL:               GsNm1 (DYNAMICS)  max=  3.36391294768658E-07
DEBUG_STATS_RL:               GsNm1 (DYNAMICS) mean= -2.60020412260748E-10
DEBUG_STATS_RL:               GsNm1 (DYNAMICS) S.D.=  1.75949490933300E-08
DEBUG_STATS_RL:    cg2d_b (SOLVE_FOR_PRESSURE)  min= -1.96494177772166E+04
DEBUG_STATS_RL:    cg2d_b (SOLVE_FOR_PRESSURE)  max=  1.95111401096795E+04
DEBUG_STATS_RL:    cg2d_b (SOLVE_FOR_PRESSURE) mean=  2.65097451595789E+00
DEBUG_STATS_RL:    cg2d_b (SOLVE_FOR_PRESSURE) S.D.=  3.68983516845562E+03
 cg2d: Sum(rhs),rhsMax =   3.12325081283466E-01  1.29062636946397E+00
(PID.TID 0000.0001)  cg2d: iter=     1 ; resid.=  1.01035478017991E-01
(PID.TID 0000.0001)  cg2d: iter=     2 ; resid.=  5.37306652131644E-02
(PID.TID 0000.0001)  cg2d: iter=     3 ; resid.=  4.22012382996849E-02
(PID.TID 0000.0001)  cg2d: iter=     4 ; resid.=  4.41596711135170E-02
(PID.TID 0000.0001)  cg2d: iter=     5 ; resid.=  4.41752697962789E-02
(PID.TID 0000.0001)  cg2d: iter=     6 ; resid.=  3.84920018750201E-02
(PID.TID 0000.0001)  cg2d: iter=     7 ; resid.=  3.09308002495671E-02
(PID.TID 0000.0001)  cg2d: iter=     8 ; resid.=  2.48185758744782E-02
(PID.TID 0000.0001)  cg2d: iter=     9 ; resid.=  1.96544268136188E-02
(PID.TID 0000.0001)  cg2d: iter=    10 ; resid.=  1.64939959883899E-02
(PID.TID 0000.0001)  cg2d: iter=    11 ; resid.=  1.41925430116947E-02
(PID.TID 0000.0001)  cg2d: iter=    12 ; resid.=  1.17346537807157E-02
(PID.TID 0000.0001)  cg2d: iter=    13 ; resid.=  9.57100657614718E-03
(PID.TID 0000.0001)  cg2d: iter=    14 ; resid.=  8.16982826143273E-03
(PID.TID 0000.0001)  cg2d: iter=    15 ; resid.=  6.71879198134869E-03
(PID.TID 0000.0001)  cg2d: iter=    16 ; resid.=  5.74051008908745E-03
(PID.TID 0000.0001)  cg2d: iter=    17 ; resid.=  5.47939724986141E-03
(PID.TID 0000.0001)  cg2d: iter=    18 ; resid.=  4.87096156952239E-03
(PID.TID 0000.0001)  cg2d: iter=    19 ; resid.=  3.88525286731080E-03
(PID.TID 0000.0001)  cg2d: iter=    20 ; resid.=  3.06045186509558E-03
(PID.TID 0000.0001)  cg2d: iter=    21 ; resid.=  2.30006328639402E-03
(PID.TID 0000.0001)  cg2d: iter=    22 ; resid.=  1.90798165250835E-03
(PID.TID 0000.0001)  cg2d: iter=    23 ; resid.=  1.70749257753768E-03
(PID.TID 0000.0001)  cg2d: iter=    24 ; resid.=  1.50942258892697E-03
(PID.TID 0000.0001)  cg2d: iter=    25 ; resid.=  1.29805260284569E-03
(PID.TID 0000.0001)  cg2d: iter=    26 ; resid.=  1.07581148601395E-03
(PID.TID 0000.0001)  cg2d: iter=    27 ; resid.=  9.10060913623331E-04
(PID.TID 0000.0001)  cg2d: iter=    28 ; resid.=  8.06580760587601E-04
(PID.TID 0000.0001)  cg2d: iter=    29 ; resid.=  6.53213487441485E-04
(PID.TID 0000.0001)  cg2d: iter=    30 ; resid.=  4.94595745971042E-04
(PID.TID 0000.0001)  cg2d: iter=    31 ; resid.=  3.96987524551284E-04
(PID.TID 0000.0001)  cg2d: iter=    32 ; resid.=  3.21081677077919E-04
(PID.TID 0000.0001)  cg2d: iter=    33 ; resid.=  2.66161337785172E-04
(PID.TID 0000.0001)  cg2d: iter=    34 ; resid.=  2.02292864746713E-04
(PID.TID 0000.0001)  cg2d: iter=    35 ; resid.=  1.60777869568485E-04
(PID.TID 0000.0001)  cg2d: iter=    36 ; resid.=  1.46539881596622E-04
(PID.TID 0000.0001)  cg2d: iter=    37 ; resid.=  1.41295596321431E-04
(PID.TID 0000.0001)  cg2d: iter=    38 ; resid.=  1.32091357697946E-04
(PID.TID 0000.0001)  cg2d: iter=    39 ; resid.=  1.10533509897174E-04
(PID.TID 0000.0001)  cg2d: iter=    40 ; resid.=  8.88922512778345E-05
(PID.TID 0000.0001)  cg2d: iter=    41 ; resid.=  7.11871629244395E-05
(PID.TID 0000.0001)  cg2d: iter=    42 ; resid.=  6.04226530163065E-05
(PID.TID 0000.0001)  cg2d: iter=    43 ; resid.=  5.35442546921424E-05
(PID.TID 0000.0001)  cg2d: iter=    44 ; resid.=  4.63800573478747E-05
(PID.TID 0000.0001)  cg2d: iter=    45 ; resid.=  3.70514154673960E-05
(PID.TID 0000.0001)  cg2d: iter=    46 ; resid.=  2.92437495507753E-05
(PID.TID 0000.0001)  cg2d: iter=    47 ; resid.=  2.25684511105099E-05
(PID.TID 0000.0001)  cg2d: iter=    48 ; resid.=  1.81107040671520E-05
(PID.TID 0000.0001)  cg2d: iter=    49 ; resid.=  1.40641170834310E-05
(PID.TID 0000.0001)  cg2d: iter=    50 ; resid.=  1.14286006581477E-05
(PID.TID 0000.0001)  cg2d: iter=    51 ; resid.=  9.58791936581983E-06
(PID.TID 0000.0001)  cg2d: iter=    52 ; resid.=  8.83642629530001E-06
(PID.TID 0000.0001)  cg2d: iter=    53 ; resid.=  8.01195606306544E-06
(PID.TID 0000.0001)  cg2d: iter=    54 ; resid.=  6.41124232489089E-06
(PID.TID 0000.0001)  cg2d: iter=    55 ; resid.=  5.31297677191464E-06
(PID.TID 0000.0001)  cg2d: iter=    56 ; resid.=  4.59429400571265E-06
(PID.TID 0000.0001)  cg2d: iter=    57 ; resid.=  3.87348155306653E-06
(PID.TID 0000.0001)  cg2d: iter=    58 ; resid.=  3.17164333963804E-06
(PID.TID 0000.0001)  cg2d: iter=    59 ; resid.=  2.48901419294350E-06
(PID.TID 0000.0001)  cg2d: iter=    60 ; resid.=  1.74161523792374E-06
(PID.TID 0000.0001)  cg2d: iter=    61 ; resid.=  1.23034101632453E-06
(PID.TID 0000.0001)  cg2d: iter=    62 ; resid.=  9.26042924186511E-07
(PID.TID 0000.0001)  cg2d: iter=    63 ; resid.=  7.30454095293007E-07
(PID.TID 0000.0001)  cg2d: iter=    64 ; resid.=  6.19983115811901E-07
(PID.TID 0000.0001)  cg2d: iter=    65 ; resid.=  5.05678418668958E-07
(PID.TID 0000.0001)  cg2d: iter=    66 ; resid.=  4.32973671326016E-07
(PID.TID 0000.0001)  cg2d: iter=    67 ; resid.=  3.73798837752252E-07
(PID.TID 0000.0001)  cg2d: iter=    68 ; resid.=  3.15569733068751E-07
(PID.TID 0000.0001)  cg2d: iter=    69 ; resid.=  2.55059371115663E-07
(PID.TID 0000.0001)  cg2d: iter=    70 ; resid.=  2.02599300408592E-07
(PID.TID 0000.0001)  cg2d: iter=    71 ; resid.=  1.71093322680687E-07
(PID.TID 0000.0001)  cg2d: iter=    72 ; resid.=  1.48904459267232E-07
(PID.TID 0000.0001)  cg2d: iter=    73 ; resid.=  1.35709769920635E-07
(PID.TID 0000.0001)  cg2d: iter=    74 ; resid.=  1.14823768690676E-07
(PID.TID 0000.0001)  cg2d: iter=    75 ; resid.=  1.01367464809689E-07
(PID.TID 0000.0001)  cg2d: iter=    76 ; resid.=  8.27924377783316E-08
(PID.TID 0000.0001)  cg2d: iter=    77 ; resid.=  6.47097217864316E-08
(PID.TID 0000.0001)  cg2d: iter=    78 ; resid.=  5.06022388489524E-08
(PID.TID 0000.0001)  cg2d: iter=    79 ; resid.=  4.21773063786061E-08
(PID.TID 0000.0001)  cg2d: iter=    80 ; resid.=  3.50016035612141E-08
(PID.TID 0000.0001)  cg2d: iter=    81 ; resid.=  2.73758092993767E-08
(PID.TID 0000.0001)  cg2d: iter=    82 ; resid.=  2.00435046684628E-08
(PID.TID 0000.0001)  cg2d: iter=    83 ; resid.=  1.41208028350186E-08
(PID.TID 0000.0001)  cg2d: iter=    84 ; resid.=  1.05267626152608E-08
(PID.TID 0000.0001)  cg2d: iter=    85 ; resid.=  7.53798132285325E-09
(PID.TID 0000.0001)  cg2d: iter=    86 ; resid.=  5.40606176494189E-09
(PID.TID 0000.0001)  cg2d: iter=    87 ; resid.=  4.27364158646341E-09
(PID.TID 0000.0001)  cg2d: iter=    88 ; resid.=  3.24225053815787E-09
(PID.TID 0000.0001)  cg2d: iter=    89 ; resid.=  2.48358428173440E-09
(PID.TID 0000.0001)  cg2d: iter=    90 ; resid.=  2.09334777187872E-09
(PID.TID 0000.0001)  cg2d: iter=    91 ; resid.=  1.89691736418521E-09
(PID.TID 0000.0001)  cg2d: iter=    92 ; resid.=  1.65607312710006E-09
(PID.TID 0000.0001)  cg2d: iter=    93 ; resid.=  1.35047237065734E-09
(PID.TID 0000.0001)  cg2d: iter=    94 ; resid.=  1.07625506448495E-09
(PID.TID 0000.0001)  cg2d: iter=    95 ; resid.=  9.20959291342331E-10
(PID.TID 0000.0001)  cg2d: iter=    96 ; resid.=  8.11223491120970E-10
(PID.TID 0000.0001)  cg2d: iter=    97 ; resid.=  6.55785311726854E-10
(PID.TID 0000.0001)  cg2d: iter=    98 ; resid.=  4.89767188939213E-10
(PID.TID 0000.0001)  cg2d: iter=    99 ; resid.=  3.36774451482859E-10
(PID.TID 0000.0001)  cg2d: iter=   100 ; resid.=  2.42289281137783E-10
(PID.TID 0000.0001)  cg2d: iter=   101 ; resid.=  1.95941961649251E-10
(PID.TID 0000.0001)  cg2d: iter=   102 ; resid.=  1.82662872158917E-10
(PID.TID 0000.0001)  cg2d: iter=   103 ; resid.=  1.54600933905530E-10
(PID.TID 0000.0001)  cg2d: iter=   104 ; resid.=  1.25062156713743E-10
(PID.TID 0000.0001)  cg2d: iter=   105 ; resid.=  1.00619618935447E-10
(PID.TID 0000.0001)  cg2d: iter=   106 ; resid.=  8.08006642461475E-11
(PID.TID 0000.0001)  cg2d: iter=   107 ; resid.=  6.47228272313896E-11
(PID.TID 0000.0001)  cg2d: iter=   108 ; resid.=  5.02791083154212E-11
(PID.TID 0000.0001)  cg2d: iter=   109 ; resid.=  3.81044774014137E-11
(PID.TID 0000.0001)  cg2d: iter=   110 ; resid.=  2.57153457574970E-11
(PID.TID 0000.0001)  cg2d: iter=   111 ; resid.=  1.73850371425406E-11
(PID.TID 0000.0001)  cg2d: iter=   112 ; resid.=  1.30729958230789E-11
(PID.TID 0000.0001)  cg2d: iter=   113 ; resid.=  1.06008584206331E-11
(PID.TID 0000.0001)  cg2d: iter=   114 ; resid.=  8.12625295243862E-12
(PID.TID 0000.0001)  cg2d: iter=   115 ; resid.=  6.44848851269445E-12
(PID.TID 0000.0001)  cg2d: iter=   116 ; resid.=  4.90799147717606E-12
(PID.TID 0000.0001)  cg2d: iter=   117 ; resid.=  3.78413778133078E-12
(PID.TID 0000.0001)  cg2d: iter=   118 ; resid.=  2.65996210535925E-12
(PID.TID 0000.0001)  cg2d: iter=   119 ; resid.=  2.11571032138414E-12
(PID.TID 0000.0001)  cg2d: iter=   120 ; resid.=  1.82256423657071E-12
(PID.TID 0000.0001)  cg2d: iter=   121 ; resid.=  1.44505056159043E-12
(PID.TID 0000.0001)  cg2d: iter=   122 ; resid.=  1.05824143140979E-12
(PID.TID 0000.0001)  cg2d: iter=   123 ; resid.=  7.22051954137708E-13
(PID.TID 0000.0001)  cg2d: iter=   124 ; resid.=  4.81105621984421E-13
(PID.TID 0000.0001)  cg2d: iter=   125 ; resid.=  3.36897123606261E-13
(PID.TID 0000.0001)  cg2d: iter=   126 ; resid.=  2.61252048520243E-13
(PID.TID 0000.0001)  cg2d: iter=   127 ; resid.=  1.96364912166563E-13
(PID.TID 0000.0001)  cg2d: iter=   128 ; resid.=  1.44649550975887E-13
(PID.TID 0000.0001)  cg2d: iter=   129 ; resid.=  9.84475591970792E-14
DEBUG_STATS_RL:    cg2d_x (SOLVE_FOR_PRESSURE)  min= -1.58523938489684E+01
DEBUG_STATS_RL:    cg2d_x (SOLVE_FOR_PRESSURE)  max=  8.45925017200522E+00
DEBUG_STATS_RL:    cg2d_x (SOLVE_FOR_PRESSURE) mean= -1.65938738507836E+00
DEBUG_STATS_RL:    cg2d_x (SOLVE_FOR_PRESSURE) S.D.=  6.30482411983430E+00
(PID.TID 0000.0001)      cg2d_init_res =   4.09835653834239E-01
(PID.TID 0000.0001)      cg2d_iters(min,last) =      -1     129
(PID.TID 0000.0001)      cg2d_last_res =   9.84475591970792E-14
(PID.TID 0000.0001) // =======================================================
(PID.TID 0000.0001) // Begin MONITOR dynamic field statistics
(PID.TID 0000.0001) // =======================================================
(PID.TID 0000.0001) %MON time_tsnumber                =                    37
(PID.TID 0000.0001) %MON time_secondsf                =   3.1968000000000E+06
(PID.TID 0000.0001) %MON dynstat_eta_max              =   8.6230888603520E-01
(PID.TID 0000.0001) %MON dynstat_eta_min              =  -1.6159422883760E+00
(PID.TID 0000.0001) %MON dynstat_eta_mean             =  -2.7659631974137E-03
(PID.TID 0000.0001) %MON dynstat_eta_sd               =   5.5674667783370E-01
(PID.TID 0000.0001) %MON dynstat_eta_del2             =   2.1582269727890E-03
(PID.TID 0000.0001) %MON dynstat_uvel_max             =   1.2892030267845E-01
(PID.TID 0000.0001) %MON dynstat_uvel_min             =  -1.5534856899316E-01
(PID.TID 0000.0001) %MON dynstat_uvel_mean            =   1.1702233327125E-03
(PID.TID 0000.0001) %MON dynstat_uvel_sd              =   1.1915402879473E-02
(PID.TID 0000.0001) %MON dynstat_uvel_del2            =   7.8601824764849E-05
(PID.TID 0000.0001) %MON dynstat_vvel_max             =   1.0509781632413E-01
(PID.TID 0000.0001) %MON dynstat_vvel_min             =  -1.0946911044632E-01
(PID.TID 0000.0001) %MON dynstat_vvel_mean            =   1.9485639530152E-05
(PID.TID 0000.0001) %MON dynstat_vvel_sd              =   8.5945200038286E-03
(PID.TID 0000.0001) %MON dynstat_vvel_del2            =   7.5062569259067E-05
(PID.TID 0000.0001) %MON dynstat_wvel_max             =   8.3749003816827E-05
(PID.TID 0000.0001) %MON dynstat_wvel_min             =  -1.1396419875022E-04
(PID.TID 0000.0001) %MON dynstat_wvel_mean            =   3.9391871359735E-22
(PID.TID 0000.0001) %MON dynstat_wvel_sd              =   1.3793493663206E-05
(PID.TID 0000.0001) %MON dynstat_wvel_del2            =   1.5324748964674E-07
(PID.TID 0000.0001) %MON dynstat_theta_max            =   3.0118050926646E+01
(PID.TID 0000.0001) %MON dynstat_theta_min            =  -2.0019700214665E+00
(PID.TID 0000.0001) %MON dynstat_theta_mean           =   3.6217418114030E+00
(PID.TID 0000.0001) %MON dynstat_theta_sd             =   4.4186414815587E+00
(PID.TID 0000.0001) %MON dynstat_theta_del2           =   4.7631040895405E-03
(PID.TID 0000.0001) %MON dynstat_salt_max             =   3.7454804806208E+01
(PID.TID 0000.0001) %MON dynstat_salt_min             =   2.9821811042734E+01
(PID.TID 0000.0001) %MON dynstat_salt_mean            =   3.4717979931742E+01
(PID.TID 0000.0001) %MON dynstat_salt_sd              =   2.9629103431343E-01
(PID.TID 0000.0001) %MON dynstat_salt_del2            =   9.8743468724925E-04
(PID.TID 0000.0001) %MON dynstat_sst_max              =   3.0118050926646E+01
(PID.TID 0000.0001) %MON dynstat_sst_min              =  -2.0019700214665E+00
(PID.TID 0000.0001) %MON dynstat_sst_mean             =   1.8802790037931E+01
(PID.TID 0000.0001) %MON dynstat_sst_sd               =   9.0261309103614E+00
(PID.TID 0000.0001) %MON dynstat_sst_del2             =   2.6749738816195E-02
(PID.TID 0000.0001) %MON dynstat_sss_max              =   3.7431260890190E+01
(PID.TID 0000.0001) %MON dynstat_sss_min              =   2.9821811042734E+01
(PID.TID 0000.0001) %MON dynstat_sss_mean             =   3.4844170939850E+01
(PID.TID 0000.0001) %MON dynstat_sss_sd               =   9.7630105981961E-01
(PID.TID 0000.0001) %MON dynstat_sss_del2             =   7.8387712580009E-03
(PID.TID 0000.0001) %MON forcing_qnet_max             =   3.7191279602051E+02
(PID.TID 0000.0001) %MON forcing_qnet_min             =  -1.7498964233398E+02
(PID.TID 0000.0001) %MON forcing_qnet_mean            =  -1.4729433485573E+01
(PID.TID 0000.0001) %MON forcing_qnet_sd              =   8.8124246964212E+01
(PID.TID 0000.0001) %MON forcing_qnet_del2            =   9.6017907876668E-01
(PID.TID 0000.0001) %MON forcing_qsw_max              =   0.0000000000000E+00
(PID.TID 0000.0001) %MON forcing_qsw_min              =   0.0000000000000E+00
(PID.TID 0000.0001) %MON forcing_qsw_mean             =   0.0000000000000E+00
(PID.TID 0000.0001) %MON forcing_qsw_sd               =   0.0000000000000E+00
(PID.TID 0000.0001) %MON forcing_qsw_del2             =   0.0000000000000E+00
(PID.TID 0000.0001) %MON forcing_empmr_max            =   7.5578354596928E-05
(PID.TID 0000.0001) %MON forcing_empmr_min            =  -7.7828485700593E-05
(PID.TID 0000.0001) %MON forcing_empmr_mean           =   9.3726740456976E-07
(PID.TID 0000.0001) %MON forcing_empmr_sd             =   2.8054368786233E-05
(PID.TID 0000.0001) %MON forcing_empmr_del2           =   3.5379338060375E-07
(PID.TID 0000.0001) %MON forcing_fu_max               =   2.9215110242367E-01
(PID.TID 0000.0001) %MON forcing_fu_min               =  -2.0079303681850E-01
(PID.TID 0000.0001) %MON forcing_fu_mean              =   1.7142039677415E-02
(PID.TID 0000.0001) %MON forcing_fu_sd                =   9.0801562846002E-02
(PID.TID 0000.0001) %MON forcing_fu_del2              =   6.8477442505628E-04
(PID.TID 0000.0001) %MON forcing_fv_max               =   1.8260629773140E-01
(PID.TID 0000.0001) %MON forcing_fv_min               =  -1.7113216519356E-01
(PID.TID 0000.0001) %MON forcing_fv_mean              =  -6.6293767805238E-03
(PID.TID 0000.0001) %MON forcing_fv_sd                =   4.4536887248365E-02
(PID.TID 0000.0001) %MON forcing_fv_del2              =   4.8427363307602E-04
(PID.TID 0000.0001) %MON trAdv_CFL_u_max              =   4.0816574484515E-02
(PID.TID 0000.0001) %MON trAdv_CFL_v_max              =   2.1095554985497E-02
(PID.TID 0000.0001) %MON trAdv_CFL_w_max              =   3.6135282865387E-02
(PID.TID 0000.0001) %MON advcfl_uvel_max              =   4.2612751986653E-02
(PID.TID 0000.0001) %MON advcfl_vvel_max              =   2.1268092486265E-02
(PID.TID 0000.0001) %MON advcfl_wvel_max              =   2.8037006608075E-02
(PID.TID 0000.0001) %MON advcfl_W_hf_max              =   3.4044936595519E-02
(PID.TID 0000.0001) %MON pe_b_mean                    =   3.9664975255273E-04
(PID.TID 0000.0001) %MON ke_max                       =   1.3798030998141E-02
(PID.TID 0000.0001) %MON ke_mean                      =   9.8286124544624E-05
(PID.TID 0000.0001) %MON ke_vol                       =   1.3226782436723E+18
(PID.TID 0000.0001) %MON vort_r_min                   =  -4.0402910690560E-07
(PID.TID 0000.0001) %MON vort_r_max                   =   4.1492285211076E-07
(PID.TID 0000.0001) %MON vort_a_mean                  =  -2.5274807081220E-05
(PID.TID 0000.0001) %MON vort_a_sd                    =   7.3604507981799E-05
(PID.TID 0000.0001) %MON vort_p_mean                  =  -3.1845655401029E-05
(PID.TID 0000.0001) %MON vort_p_sd                    =   1.3162480595499E-04
(PID.TID 0000.0001) %MON surfExpan_theta_mean         =   1.7179363732282E-07
(PID.TID 0000.0001) %MON surfExpan_salt_mean          =   5.2010629041563E-08
(PID.TID 0000.0001) // =======================================================
(PID.TID 0000.0001) // End MONITOR dynamic field statistics
(PID.TID 0000.0001) // =======================================================
 EXTERNAL_FIELDS_LOAD,        37 : iP,iLd,i0,i1=    1    2    1    2 ; Wght=  0.2666666667  0.7333333333
 EXTERNAL_FIELDS_LOAD: (fu0,1),fu,fv= -3.5633E-02 -1.4435E-02 -2.0088E-02 -2.8201E-02
 EXTERNAL_FIELDS_LOAD: SST,SSS,Q,E-P= -1.3445E-01  3.4499E+01  2.4722E+02  9.2464E-06
DEBUG_STATS_RL:          Uvel (THERMODYNAMICS)  min= -1.55348568993160E-01
DEBUG_STATS_RL:          Uvel (THERMODYNAMICS)  max=  1.28920302678453E-01
DEBUG_STATS_RL:          Uvel (THERMODYNAMICS) mean=  2.45023719936372E-03
DEBUG_STATS_RL:          Uvel (THERMODYNAMICS) S.D.=  2.00374857116340E-02
DEBUG_STATS_RL:          Vvel (THERMODYNAMICS)  min= -1.09469110446318E-01
DEBUG_STATS_RL:          Vvel (THERMODYNAMICS)  max=  1.05097816324128E-01
DEBUG_STATS_RL:          Vvel (THERMODYNAMICS) mean= -3.30587502649512E-04
DEBUG_STATS_RL:          Vvel (THERMODYNAMICS) S.D.=  1.31878031389048E-02
DEBUG_STATS_RL:          Wvel (THERMODYNAMICS)  min= -1.13964198750215E-04
DEBUG_STATS_RL:          Wvel (THERMODYNAMICS)  max=  8.37490038168272E-05
DEBUG_STATS_RL:          Wvel (THERMODYNAMICS) mean= -3.90332237867130E-07
DEBUG_STATS_RL:          Wvel (THERMODYNAMICS) S.D.=  1.22976177605287E-05
DEBUG_STATS_RL:         Theta (THERMODYNAMICS)  min= -2.00080693509261E+00
DEBUG_STATS_RL:         Theta (THERMODYNAMICS)  max=  3.01405464047233E+01
DEBUG_STATS_RL:         Theta (THERMODYNAMICS) mean=  3.21280837449374E+00
DEBUG_STATS_RL:         Theta (THERMODYNAMICS) S.D.=  5.86257396648298E+00
DEBUG_STATS_RL:          Salt (THERMODYNAMICS)  min= -1.56125112837913E-17
DEBUG_STATS_RL:          Salt (THERMODYNAMICS)  max=  3.74548583863043E+01
DEBUG_STATS_RL:          Salt (THERMODYNAMICS) mean=  1.88448154793112E+01
DEBUG_STATS_RL:          Salt (THERMODYNAMICS) S.D.=  1.73003367298182E+01
DEBUG_STATS_RL:         GtNm1 (THERMODYNAMICS)  min= -3.24827658991196E-06
DEBUG_STATS_RL:         GtNm1 (THERMODYNAMICS)  max=  2.47770402077952E-06
DEBUG_STATS_RL:         GtNm1 (THERMODYNAMICS) mean=  1.30304371975915E-08
DEBUG_STATS_RL:         GtNm1 (THERMODYNAMICS) S.D.=  2.01018617813528E-07
DEBUG_STATS_RL:         GsNm1 (THERMODYNAMICS)  min= -4.39607307912624E-07
DEBUG_STATS_RL:         GsNm1 (THERMODYNAMICS)  max=  3.05363728557742E-07
DEBUG_STATS_RL:         GsNm1 (THERMODYNAMICS) mean= -1.74346239867985E-10
DEBUG_STATS_RL:         GsNm1 (THERMODYNAMICS) S.D.=  1.75636406003081E-08
DEBUG_STATS_RL:                EtaN (DYNAMICS)  min= -1.61594228837595E+00
DEBUG_STATS_RL:                EtaN (DYNAMICS)  max=  8.62308886035196E-01
DEBUG_STATS_RL:                EtaN (DYNAMICS) mean= -1.69152638642034E-01
DEBUG_STATS_RL:                EtaN (DYNAMICS) S.D.=  6.42693590197178E-01
DEBUG_STATS_RL:                Uvel (DYNAMICS)  min= -1.55348568993160E-01
DEBUG_STATS_RL:                Uvel (DYNAMICS)  max=  1.28920302678453E-01
DEBUG_STATS_RL:                Uvel (DYNAMICS) mean=  2.45023719936372E-03
DEBUG_STATS_RL:                Uvel (DYNAMICS) S.D.=  2.00374857116340E-02
DEBUG_STATS_RL:                Vvel (DYNAMICS)  min= -1.09469110446318E-01
DEBUG_STATS_RL:                Vvel (DYNAMICS)  max=  1.05097816324128E-01
DEBUG_STATS_RL:                Vvel (DYNAMICS) mean= -3.30587502649512E-04
DEBUG_STATS_RL:                Vvel (DYNAMICS) S.D.=  1.31878031389048E-02
DEBUG_STATS_RL:                Wvel (DYNAMICS)  min= -1.13964198750215E-04
DEBUG_STATS_RL:                Wvel (DYNAMICS)  max=  8.37490038168272E-05
DEBUG_STATS_RL:                Wvel (DYNAMICS) mean= -3.90332237867130E-07
DEBUG_STATS_RL:                Wvel (DYNAMICS) S.D.=  1.22976177605287E-05
DEBUG_STATS_RL:               Theta (DYNAMICS)  min= -2.00080693509261E+00
DEBUG_STATS_RL:               Theta (DYNAMICS)  max=  3.01405464047233E+01
DEBUG_STATS_RL:               Theta (DYNAMICS) mean=  3.21280837449374E+00
DEBUG_STATS_RL:               Theta (DYNAMICS) S.D.=  5.86257396648298E+00
DEBUG_STATS_RL:                Salt (DYNAMICS)  min= -1.56125112837913E-17
DEBUG_STATS_RL:                Salt (DYNAMICS)  max=  3.74548583863043E+01
DEBUG_STATS_RL:                Salt (DYNAMICS) mean=  1.88448154793112E+01
DEBUG_STATS_RL:                Salt (DYNAMICS) S.D.=  1.73003367298182E+01
DEBUG_STATS_RL:                  Gu (DYNAMICS)  min= -1.53369511057588E-01
DEBUG_STATS_RL:                  Gu (DYNAMICS)  max=  1.31983908046535E-01
DEBUG_STATS_RL:                  Gu (DYNAMICS) mean=  2.63210752705635E-03
DEBUG_STATS_RL:                  Gu (DYNAMICS) S.D.=  2.11223235366638E-02
DEBUG_STATS_RL:                  Gv (DYNAMICS)  min= -1.05890374198435E-01
DEBUG_STATS_RL:                  Gv (DYNAMICS)  max=  1.02565030087655E-01
DEBUG_STATS_RL:                  Gv (DYNAMICS) mean=  2.00451191223666E-03
DEBUG_STATS_RL:                  Gv (DYNAMICS) S.D.=  1.34102516573560E-02
DEBUG_STATS_RL:               GuNm1 (DYNAMICS)  min= -8.05370488648923E-06
DEBUG_STATS_RL:               GuNm1 (DYNAMICS)  max=  8.08877019022019E-06
DEBUG_STATS_RL:               GuNm1 (DYNAMICS) mean= -1.91541691811951E-08
DEBUG_STATS_RL:               GuNm1 (DYNAMICS) S.D.=  1.17632406254967E-06
DEBUG_STATS_RL:               GvNm1 (DYNAMICS)  min= -1.03102253846635E-05
DEBUG_STATS_RL:               GvNm1 (DYNAMICS)  max=  1.63572879863843E-05
DEBUG_STATS_RL:               GvNm1 (DYNAMICS) mean=  7.51870949136633E-07
DEBUG_STATS_RL:               GvNm1 (DYNAMICS) S.D.=  2.61366108426856E-06
DEBUG_STATS_RL:               GtNm1 (DYNAMICS)  min= -3.24827658991196E-06
DEBUG_STATS_RL:               GtNm1 (DYNAMICS)  max=  2.47770402077952E-06
DEBUG_STATS_RL:               GtNm1 (DYNAMICS) mean=  1.30304371975915E-08
DEBUG_STATS_RL:               GtNm1 (DYNAMICS) S.D.=  2.01018617813528E-07
DEBUG_STATS_RL:               GsNm1 (DYNAMICS)  min= -4.39607307912624E-07
DEBUG_STATS_RL:               GsNm1 (DYNAMICS)  max=  3.05363728557742E-07
DEBUG_STATS_RL:               GsNm1 (DYNAMICS) mean= -1.74346239867985E-10
DEBUG_STATS_RL:               GsNm1 (DYNAMICS) S.D.=  1.75636406003081E-08
DEBUG_STATS_RL:    cg2d_b (SOLVE_FOR_PRESSURE)  min= -1.95451413148606E+04
DEBUG_STATS_RL:    cg2d_b (SOLVE_FOR_PRESSURE)  max=  1.97940936829873E+04
DEBUG_STATS_RL:    cg2d_b (SOLVE_FOR_PRESSURE) mean=  2.72601785405636E+00
DEBUG_STATS_RL:    cg2d_b (SOLVE_FOR_PRESSURE) S.D.=  3.66696504986935E+03
 cg2d: Sum(rhs),rhsMax =   3.18818907963641E-01  1.30012907031397E+00
(PID.TID 0000.0001)  cg2d: iter=     1 ; resid.=  1.00950647678544E-01
(PID.TID 0000.0001)  cg2d: iter=     2 ; resid.=  5.22234880297939E-02
(PID.TID 0000.0001)  cg2d: iter=     3 ; resid.=  4.06477302202380E-02
(PID.TID 0000.0001)  cg2d: iter=     4 ; resid.=  4.20627067351955E-02
(PID.TID 0000.0001)  cg2d: iter=     5 ; resid.=  4.17124607358920E-02
(PID.TID 0000.0001)  cg2d: iter=     6 ; resid.=  3.64391402814122E-02
(PID.TID 0000.0001)  cg2d: iter=     7 ; resid.=  2.91199637093529E-02
(PID.TID 0000.0001)  cg2d: iter=     8 ; resid.=  2.35916933127997E-02
(PID.TID 0000.0001)  cg2d: iter=     9 ; resid.=  1.90261912311276E-02
(PID.TID 0000.0001)  cg2d: iter=    10 ; resid.=  1.63737377767050E-02
(PID.TID 0000.0001)  cg2d: iter=    11 ; resid.=  1.41496870521007E-02
(PID.TID 0000.0001)  cg2d: iter=    12 ; resid.=  1.14733270363701E-02
(PID.TID 0000.0001)  cg2d: iter=    13 ; resid.=  9.03293829898106E-03
(PID.TID 0000.0001)  cg2d: iter=    14 ; resid.=  7.61438314776478E-03
(PID.TID 0000.0001)  cg2d: iter=    15 ; resid.=  6.30343179496609E-03
(PID.TID 0000.0001)  cg2d: iter=    16 ; resid.=  5.47490702194783E-03
(PID.TID 0000.0001)  cg2d: iter=    17 ; resid.=  5.32008993536264E-03
(PID.TID 0000.0001)  cg2d: iter=    18 ; resid.=  4.80580698522649E-03
(PID.TID 0000.0001)  cg2d: iter=    19 ; resid.=  3.88875599518972E-03
(PID.TID 0000.0001)  cg2d: iter=    20 ; resid.=  3.07642440786455E-03
(PID.TID 0000.0001)  cg2d: iter=    21 ; resid.=  2.30475658613886E-03
(PID.TID 0000.0001)  cg2d: iter=    22 ; resid.=  1.92229462706991E-03
(PID.TID 0000.0001)  cg2d: iter=    23 ; resid.=  1.72312094965704E-03
(PID.TID 0000.0001)  cg2d: iter=    24 ; resid.=  1.52029945082187E-03
(PID.TID 0000.0001)  cg2d: iter=    25 ; resid.=  1.30050381272494E-03
(PID.TID 0000.0001)  cg2d: iter=    26 ; resid.=  1.07054253071501E-03
(PID.TID 0000.0001)  cg2d: iter=    27 ; resid.=  8.98421451106753E-04
(PID.TID 0000.0001)  cg2d: iter=    28 ; resid.=  8.05382263488076E-04
(PID.TID 0000.0001)  cg2d: iter=    29 ; resid.=  6.60865503997682E-04
(PID.TID 0000.0001)  cg2d: iter=    30 ; resid.=  5.04101939081873E-04
(PID.TID 0000.0001)  cg2d: iter=    31 ; resid.=  4.00100983789035E-04
(PID.TID 0000.0001)  cg2d: iter=    32 ; resid.=  3.21634348740123E-04
(PID.TID 0000.0001)  cg2d: iter=    33 ; resid.=  2.68075451246604E-04
(PID.TID 0000.0001)  cg2d: iter=    34 ; resid.=  2.05750913040856E-04
(PID.TID 0000.0001)  cg2d: iter=    35 ; resid.=  1.62903400638995E-04
(PID.TID 0000.0001)  cg2d: iter=    36 ; resid.=  1.47056489824144E-04
(PID.TID 0000.0001)  cg2d: iter=    37 ; resid.=  1.40839200677970E-04
(PID.TID 0000.0001)  cg2d: iter=    38 ; resid.=  1.31501806715612E-04
(PID.TID 0000.0001)  cg2d: iter=    39 ; resid.=  1.10402773498872E-04
(PID.TID 0000.0001)  cg2d: iter=    40 ; resid.=  8.74579938088210E-05
(PID.TID 0000.0001)  cg2d: iter=    41 ; resid.=  6.97041418723347E-05
(PID.TID 0000.0001)  cg2d: iter=    42 ; resid.=  5.95890452674299E-05
(PID.TID 0000.0001)  cg2d: iter=    43 ; resid.=  5.25552384857579E-05
(PID.TID 0000.0001)  cg2d: iter=    44 ; resid.=  4.48000872803670E-05
(PID.TID 0000.0001)  cg2d: iter=    45 ; resid.=  3.46066744805219E-05
(PID.TID 0000.0001)  cg2d: iter=    46 ; resid.=  2.66855577183490E-05
(PID.TID 0000.0001)  cg2d: iter=    47 ; resid.=  2.05798837964937E-05
(PID.TID 0000.0001)  cg2d: iter=    48 ; resid.=  1.67631601900944E-05
(PID.TID 0000.0001)  cg2d: iter=    49 ; resid.=  1.30727683827743E-05
(PID.TID 0000.0001)  cg2d: iter=    50 ; resid.=  1.06143307286129E-05
(PID.TID 0000.0001)  cg2d: iter=    51 ; resid.=  8.75947588909273E-06
(PID.TID 0000.0001)  cg2d: iter=    52 ; resid.=  7.83998297376639E-06
(PID.TID 0000.0001)  cg2d: iter=    53 ; resid.=  7.00058191793674E-06
(PID.TID 0000.0001)  cg2d: iter=    54 ; resid.=  5.65631703597397E-06
(PID.TID 0000.0001)  cg2d: iter=    55 ; resid.=  4.78888185441464E-06
(PID.TID 0000.0001)  cg2d: iter=    56 ; resid.=  4.23378090039249E-06
(PID.TID 0000.0001)  cg2d: iter=    57 ; resid.=  3.64400861007040E-06
(PID.TID 0000.0001)  cg2d: iter=    58 ; resid.=  3.04448380249539E-06
(PID.TID 0000.0001)  cg2d: iter=    59 ; resid.=  2.41770480381993E-06
(PID.TID 0000.0001)  cg2d: iter=    60 ; resid.=  1.71356179467007E-06
(PID.TID 0000.0001)  cg2d: iter=    61 ; resid.=  1.22154825354722E-06
(PID.TID 0000.0001)  cg2d: iter=    62 ; resid.=  9.28782326303854E-07
(PID.TID 0000.0001)  cg2d: iter=    63 ; resid.=  7.50546616289265E-07
(PID.TID 0000.0001)  cg2d: iter=    64 ; resid.=  6.54538685877101E-07
(PID.TID 0000.0001)  cg2d: iter=    65 ; resid.=  5.29836459189615E-07
(PID.TID 0000.0001)  cg2d: iter=    66 ; resid.=  4.41283123155038E-07
(PID.TID 0000.0001)  cg2d: iter=    67 ; resid.=  3.79706128950218E-07
(PID.TID 0000.0001)  cg2d: iter=    68 ; resid.=  3.20607490182311E-07
(PID.TID 0000.0001)  cg2d: iter=    69 ; resid.=  2.65297993779488E-07
(PID.TID 0000.0001)  cg2d: iter=    70 ; resid.=  2.15800832809896E-07
(PID.TID 0000.0001)  cg2d: iter=    71 ; resid.=  1.86204604508722E-07
(PID.TID 0000.0001)  cg2d: iter=    72 ; resid.=  1.62478525152678E-07
(PID.TID 0000.0001)  cg2d: iter=    73 ; resid.=  1.46922609969987E-07
(PID.TID 0000.0001)  cg2d: iter=    74 ; resid.=  1.21632318163588E-07
(PID.TID 0000.0001)  cg2d: iter=    75 ; resid.=  1.04567106924312E-07
(PID.TID 0000.0001)  cg2d: iter=    76 ; resid.=  8.32850072960988E-08
(PID.TID 0000.0001)  cg2d: iter=    77 ; resid.=  6.47401533070376E-08
(PID.TID 0000.0001)  cg2d: iter=    78 ; resid.=  5.13976686181523E-08
(PID.TID 0000.0001)  cg2d: iter=    79 ; resid.=  4.38763382550366E-08
(PID.TID 0000.0001)  cg2d: iter=    80 ; resid.=  3.63142511022562E-08
(PID.TID 0000.0001)  cg2d: iter=    81 ; resid.=  2.85152046531059E-08
(PID.TID 0000.0001)  cg2d: iter=    82 ; resid.=  2.10027833202118E-08
(PID.TID 0000.0001)  cg2d: iter=    83 ; resid.=  1.49966341762153E-08
(PID.TID 0000.0001)  cg2d: iter=    84 ; resid.=  1.11536862382395E-08
(PID.TID 0000.0001)  cg2d: iter=    85 ; resid.=  7.94174722594234E-09
(PID.TID 0000.0001)  cg2d: iter=    86 ; resid.=  5.67424590386810E-09
(PID.TID 0000.0001)  cg2d: iter=    87 ; resid.=  4.51023261674792E-09
(PID.TID 0000.0001)  cg2d: iter=    88 ; resid.=  3.38570004778366E-09
(PID.TID 0000.0001)  cg2d: iter=    89 ; resid.=  2.54701106467615E-09
(PID.TID 0000.0001)  cg2d: iter=    90 ; resid.=  2.08904125693483E-09
(PID.TID 0000.0001)  cg2d: iter=    91 ; resid.=  1.86554213217727E-09
(PID.TID 0000.0001)  cg2d: iter=    92 ; resid.=  1.63958957363822E-09
(PID.TID 0000.0001)  cg2d: iter=    93 ; resid.=  1.33583340911937E-09
(PID.TID 0000.0001)  cg2d: iter=    94 ; resid.=  1.04363267248366E-09
(PID.TID 0000.0001)  cg2d: iter=    95 ; resid.=  8.85553262348944E-10
(PID.TID 0000.0001)  cg2d: iter=    96 ; resid.=  7.86457349468308E-10
(PID.TID 0000.0001)  cg2d: iter=    97 ; resid.=  6.35833276070890E-10
(PID.TID 0000.0001)  cg2d: iter=    98 ; resid.=  4.74650887198774E-10
(PID.TID 0000.0001)  cg2d: iter=    99 ; resid.=  3.30985774839115E-10
(PID.TID 0000.0001)  cg2d: iter=   100 ; resid.=  2.44907239916236E-10
(PID.TID 0000.0001)  cg2d: iter=   101 ; resid.=  2.02817702782998E-10
(PID.TID 0000.0001)  cg2d: iter=   102 ; resid.=  1.89305920753387E-10
(PID.TID 0000.0001)  cg2d: iter=   103 ; resid.=  1.60855625868700E-10
(PID.TID 0000.0001)  cg2d: iter=   104 ; resid.=  1.32424530251310E-10
(PID.TID 0000.0001)  cg2d: iter=   105 ; resid.=  1.07472601317580E-10
(PID.TID 0000.0001)  cg2d: iter=   106 ; resid.=  8.60326566150465E-11
(PID.TID 0000.0001)  cg2d: iter=   107 ; resid.=  6.81363081641515E-11
(PID.TID 0000.0001)  cg2d: iter=   108 ; resid.=  5.25290150233909E-11
(PID.TID 0000.0001)  cg2d: iter=   109 ; resid.=  4.02563556197997E-11
(PID.TID 0000.0001)  cg2d: iter=   110 ; resid.=  2.67165116279818E-11
(PID.TID 0000.0001)  cg2d: iter=   111 ; resid.=  1.82155363981592E-11
(PID.TID 0000.0001)  cg2d: iter=   112 ; resid.=  1.39678728070776E-11
(PID.TID 0000.0001)  cg2d: iter=   113 ; resid.=  1.16011010061184E-11
(PID.TID 0000.0001)  cg2d: iter=   114 ; resid.=  8.99264678554431E-12
(PID.TID 0000.0001)  cg2d: iter=   115 ; resid.=  7.01579566473668E-12
(PID.TID 0000.0001)  cg2d: iter=   116 ; resid.=  5.14678345953872E-12
(PID.TID 0000.0001)  cg2d: iter=   117 ; resid.=  3.85552131908132E-12
(PID.TID 0000.0001)  cg2d: iter=   118 ; resid.=  2.70881156154723E-12
(PID.TID 0000.0001)  cg2d: iter=   119 ; resid.=  2.22353701621926E-12
(PID.TID 0000.0001)  cg2d: iter=   120 ; resid.=  1.94772198238293E-12
(PID.TID 0000.0001)  cg2d: iter=   121 ; resid.=  1.53090614456922E-12
(PID.TID 0000.0001)  cg2d: iter=   122 ; resid.=  1.11464647184243E-12
(PID.TID 0000.0001)  cg2d: iter=   123 ; resid.=  7.74446952624227E-13
(PID.TID 0000.0001)  cg2d: iter=   124 ; resid.=  5.26367322148258E-13
(PID.TID 0000.0001)  cg2d: iter=   125 ; resid.=  3.79229170868119E-13
(PID.TID 0000.0001)  cg2d: iter=   126 ; resid.=  2.99333826621053E-13
(PID.TID 0000.0001)  cg2d: iter=   127 ; resid.=  2.27024373601513E-13
(PID.TID 0000.0001)  cg2d: iter=   128 ; resid.=  1.70164586876308E-13
(PID.TID 0000.0001)  cg2d: iter=   129 ; resid.=  1.17214022736945E-13
(PID.TID 0000.0001)  cg2d: iter=   130 ; resid.=  8.85710925220618E-14
DEBUG_STATS_RL:    cg2d_x (SOLVE_FOR_PRESSURE)  min= -1.57834854652937E+01
DEBUG_STATS_RL:    cg2d_x (SOLVE_FOR_PRESSURE)  max=  8.35526726143323E+00
DEBUG_STATS_RL:    cg2d_x (SOLVE_FOR_PRESSURE) mean= -1.66212246886318E+00
DEBUG_STATS_RL:    cg2d_x (SOLVE_FOR_PRESSURE) S.D.=  6.31335148882580E+00
(PID.TID 0000.0001)      cg2d_init_res =   4.05881359815160E-01
(PID.TID 0000.0001)      cg2d_iters(min,last) =      -1     130
(PID.TID 0000.0001)      cg2d_last_res =   8.85710925220618E-14
(PID.TID 0000.0001) // =======================================================
(PID.TID 0000.0001) // Begin MONITOR dynamic field statistics
(PID.TID 0000.0001) // =======================================================
(PID.TID 0000.0001) %MON time_tsnumber                =                    38
(PID.TID 0000.0001) %MON time_secondsf                =   3.2832000000000E+06
(PID.TID 0000.0001) %MON dynstat_eta_max              =   8.5170920096160E-01
(PID.TID 0000.0001) %MON dynstat_eta_min              =  -1.6089179883072E+00
(PID.TID 0000.0001) %MON dynstat_eta_mean             =  -2.8442616156532E-03
(PID.TID 0000.0001) %MON dynstat_eta_sd               =   5.5701267526700E-01
(PID.TID 0000.0001) %MON dynstat_eta_del2             =   2.1552691953107E-03
(PID.TID 0000.0001) %MON dynstat_uvel_max             =   1.3549467072804E-01
(PID.TID 0000.0001) %MON dynstat_uvel_min             =  -1.5252923349636E-01
(PID.TID 0000.0001) %MON dynstat_uvel_mean            =   1.2357025360573E-03
(PID.TID 0000.0001) %MON dynstat_uvel_sd              =   1.2319286885898E-02
(PID.TID 0000.0001) %MON dynstat_uvel_del2            =   7.9894199716923E-05
(PID.TID 0000.0001) %MON dynstat_vvel_max             =   1.0581910109673E-01
(PID.TID 0000.0001) %MON dynstat_vvel_min             =  -1.1060106222118E-01
(PID.TID 0000.0001) %MON dynstat_vvel_mean            =   2.6774464226081E-05
(PID.TID 0000.0001) %MON dynstat_vvel_sd              =   8.6932031027727E-03
(PID.TID 0000.0001) %MON dynstat_vvel_del2            =   7.5350586934290E-05
(PID.TID 0000.0001) %MON dynstat_wvel_max             =   8.5782142931832E-05
(PID.TID 0000.0001) %MON dynstat_wvel_min             =  -1.1740371286243E-04
(PID.TID 0000.0001) %MON dynstat_wvel_mean            =  -2.6133469798595E-22
(PID.TID 0000.0001) %MON dynstat_wvel_sd              =   1.3781888221358E-05
(PID.TID 0000.0001) %MON dynstat_wvel_del2            =   1.4956829087482E-07
(PID.TID 0000.0001) %MON dynstat_theta_max            =   3.0140546404723E+01
(PID.TID 0000.0001) %MON dynstat_theta_min            =  -2.0008069350926E+00
(PID.TID 0000.0001) %MON dynstat_theta_mean           =   3.6218199399549E+00
(PID.TID 0000.0001) %MON dynstat_theta_sd             =   4.4188464360670E+00
(PID.TID 0000.0001) %MON dynstat_theta_del2           =   4.7530694435684E-03
(PID.TID 0000.0001) %MON dynstat_salt_max             =   3.7454858386304E+01
(PID.TID 0000.0001) %MON dynstat_salt_min             =   2.9823023503888E+01
(PID.TID 0000.0001) %MON dynstat_salt_mean            =   3.4717979754805E+01
(PID.TID 0000.0001) %MON dynstat_salt_sd              =   2.9629728962777E-01
(PID.TID 0000.0001) %MON dynstat_salt_del2            =   9.8650732902038E-04
(PID.TID 0000.0001) %MON dynstat_sst_max              =   3.0140546404723E+01
(PID.TID 0000.0001) %MON dynstat_sst_min              =  -2.0008069350926E+00
(PID.TID 0000.0001) %MON dynstat_sst_mean             =   1.8813880669982E+01
(PID.TID 0000.0001) %MON dynstat_sst_sd               =   9.0221267620830E+00
(PID.TID 0000.0001) %MON dynstat_sst_del2             =   2.6782164028323E-02
(PID.TID 0000.0001) %MON dynstat_sss_max              =   3.7430671599181E+01
(PID.TID 0000.0001) %MON dynstat_sss_min              =   2.9823023503888E+01
(PID.TID 0000.0001) %MON dynstat_sss_mean             =   3.4844094471847E+01
(PID.TID 0000.0001) %MON dynstat_sss_sd               =   9.7642842418588E-01
(PID.TID 0000.0001) %MON dynstat_sss_del2             =   7.8389998785978E-03
(PID.TID 0000.0001) %MON forcing_qnet_max             =   3.6928591512044E+02
(PID.TID 0000.0001) %MON forcing_qnet_min             =  -1.7475012308757E+02
(PID.TID 0000.0001) %MON forcing_qnet_mean            =  -1.4644524318170E+01
(PID.TID 0000.0001) %MON forcing_qnet_sd              =   8.7147670189845E+01
(PID.TID 0000.0001) %MON forcing_qnet_del2            =   9.5844621620671E-01
(PID.TID 0000.0001) %MON forcing_qsw_max              =   0.0000000000000E+00
(PID.TID 0000.0001) %MON forcing_qsw_min              =   0.0000000000000E+00
(PID.TID 0000.0001) %MON forcing_qsw_mean             =   0.0000000000000E+00
(PID.TID 0000.0001) %MON forcing_qsw_sd               =   0.0000000000000E+00
(PID.TID 0000.0001) %MON forcing_qsw_del2             =   0.0000000000000E+00
(PID.TID 0000.0001) %MON forcing_empmr_max            =   7.5264264864927E-05
(PID.TID 0000.0001) %MON forcing_empmr_min            =  -7.7908129962149E-05
(PID.TID 0000.0001) %MON forcing_empmr_mean           =   9.3794980182971E-07
(PID.TID 0000.0001) %MON forcing_empmr_sd             =   2.8038849309164E-05
(PID.TID 0000.0001) %MON forcing_empmr_del2           =   3.5380115394232E-07
(PID.TID 0000.0001) %MON forcing_fu_max               =   2.9353826045990E-01
(PID.TID 0000.0001) %MON forcing_fu_min               =  -2.0245296061039E-01
(PID.TID 0000.0001) %MON forcing_fu_mean              =   1.7196339892884E-02
(PID.TID 0000.0001) %MON forcing_fu_sd                =   9.0980570230984E-02
(PID.TID 0000.0001) %MON forcing_fu_del2              =   6.8955771745794E-04
(PID.TID 0000.0001) %MON forcing_fv_max               =   1.8468924562136E-01
(PID.TID 0000.0001) %MON forcing_fv_min               =  -1.7430406411489E-01
(PID.TID 0000.0001) %MON forcing_fv_mean              =  -6.6946376872389E-03
(PID.TID 0000.0001) %MON forcing_fv_sd                =   4.4529984647436E-02
(PID.TID 0000.0001) %MON forcing_fv_del2              =   4.8899636453518E-04
(PID.TID 0000.0001) %MON trAdv_CFL_u_max              =   4.2621406941353E-02
(PID.TID 0000.0001) %MON trAdv_CFL_v_max              =   2.1390358138850E-02
(PID.TID 0000.0001) %MON trAdv_CFL_w_max              =   3.4044936595519E-02
(PID.TID 0000.0001) %MON advcfl_uvel_max              =   4.4785814796355E-02
(PID.TID 0000.0001) %MON advcfl_vvel_max              =   2.1488012561798E-02
(PID.TID 0000.0001) %MON advcfl_wvel_max              =   2.6727040068854E-02
(PID.TID 0000.0001) %MON advcfl_W_hf_max              =   3.2072448082625E-02
(PID.TID 0000.0001) %MON pe_b_mean                    =   3.9702941135943E-04
(PID.TID 0000.0001) %MON ke_max                       =   1.3728029248006E-02
(PID.TID 0000.0001) %MON ke_mean                      =   1.0357058693410E-04
(PID.TID 0000.0001) %MON ke_vol                       =   1.3226782436723E+18
(PID.TID 0000.0001) %MON vort_r_min                   =  -4.1749075850611E-07
(PID.TID 0000.0001) %MON vort_r_max                   =   4.1329162700209E-07
(PID.TID 0000.0001) %MON vort_a_mean                  =  -2.5274807088949E-05
(PID.TID 0000.0001) %MON vort_a_sd                    =   7.3604516043793E-05
(PID.TID 0000.0001) %MON vort_p_mean                  =  -3.1845655410767E-05
(PID.TID 0000.0001) %MON vort_p_sd                    =   1.3162470761055E-04
(PID.TID 0000.0001) %MON surfExpan_theta_mean         =   1.7091045861870E-07
(PID.TID 0000.0001) %MON surfExpan_salt_mean          =   5.0412033920019E-08
(PID.TID 0000.0001) // =======================================================
(PID.TID 0000.0001) // End MONITOR dynamic field statistics
(PID.TID 0000.0001) // =======================================================
 EXTERNAL_FIELDS_LOAD,        38 : iP,iLd,i0,i1=    1    2    1    2 ; Wght=  0.2333333333  0.7666666667
 EXTERNAL_FIELDS_LOAD: (fu0,1),fu,fv= -3.5633E-02 -1.4435E-02 -1.9381E-02 -2.6880E-02
 EXTERNAL_FIELDS_LOAD: SST,SSS,Q,E-P= -1.8412E-01  3.4490E+01  2.4638E+02  9.1377E-06
DEBUG_STATS_RL:          Uvel (THERMODYNAMICS)  min= -1.52529233496358E-01
DEBUG_STATS_RL:          Uvel (THERMODYNAMICS)  max=  1.35494670728042E-01
DEBUG_STATS_RL:          Uvel (THERMODYNAMICS) mean=  2.81588133849740E-03
DEBUG_STATS_RL:          Uvel (THERMODYNAMICS) S.D.=  2.08266187607238E-02
DEBUG_STATS_RL:          Vvel (THERMODYNAMICS)  min= -1.10601062221183E-01
DEBUG_STATS_RL:          Vvel (THERMODYNAMICS)  max=  1.05819101096727E-01
DEBUG_STATS_RL:          Vvel (THERMODYNAMICS) mean= -2.71843863871230E-04
DEBUG_STATS_RL:          Vvel (THERMODYNAMICS) S.D.=  1.33326258226726E-02
DEBUG_STATS_RL:          Wvel (THERMODYNAMICS)  min= -1.17403712862435E-04
DEBUG_STATS_RL:          Wvel (THERMODYNAMICS)  max=  8.57821429318318E-05
DEBUG_STATS_RL:          Wvel (THERMODYNAMICS) mean= -3.92544254747211E-07
DEBUG_STATS_RL:          Wvel (THERMODYNAMICS) S.D.=  1.21982799240714E-05
DEBUG_STATS_RL:         Theta (THERMODYNAMICS)  min= -1.99960668378932E+00
DEBUG_STATS_RL:         Theta (THERMODYNAMICS)  max=  3.01629973898313E+01
DEBUG_STATS_RL:         Theta (THERMODYNAMICS) mean=  3.21342976168842E+00
DEBUG_STATS_RL:         Theta (THERMODYNAMICS) S.D.=  5.86328136613177E+00
DEBUG_STATS_RL:          Salt (THERMODYNAMICS)  min= -1.56125112837913E-17
DEBUG_STATS_RL:          Salt (THERMODYNAMICS)  max=  3.74548903464482E+01
DEBUG_STATS_RL:          Salt (THERMODYNAMICS) mean=  1.88448161326217E+01
DEBUG_STATS_RL:          Salt (THERMODYNAMICS) S.D.=  1.73003380110698E+01
DEBUG_STATS_RL:         GtNm1 (THERMODYNAMICS)  min= -3.43372423129547E-06
DEBUG_STATS_RL:         GtNm1 (THERMODYNAMICS)  max=  2.55273227442936E-06
DEBUG_STATS_RL:         GtNm1 (THERMODYNAMICS) mean=  1.33987746890598E-08
DEBUG_STATS_RL:         GtNm1 (THERMODYNAMICS) S.D.=  2.01569726072529E-07
DEBUG_STATS_RL:         GsNm1 (THERMODYNAMICS)  min= -5.11175095393133E-07
DEBUG_STATS_RL:         GsNm1 (THERMODYNAMICS)  max=  3.37390873664100E-07
DEBUG_STATS_RL:         GsNm1 (THERMODYNAMICS) mean= -8.54874201482062E-11
DEBUG_STATS_RL:         GsNm1 (THERMODYNAMICS) S.D.=  1.77884685163325E-08
DEBUG_STATS_RL:                EtaN (DYNAMICS)  min= -1.60891798830720E+00
DEBUG_STATS_RL:                EtaN (DYNAMICS)  max=  8.51709200961598E-01
DEBUG_STATS_RL:                EtaN (DYNAMICS) mean= -1.69431444328561E-01
DEBUG_STATS_RL:                EtaN (DYNAMICS) S.D.=  6.43562842897638E-01
DEBUG_STATS_RL:                Uvel (DYNAMICS)  min= -1.52529233496358E-01
DEBUG_STATS_RL:                Uvel (DYNAMICS)  max=  1.35494670728042E-01
DEBUG_STATS_RL:                Uvel (DYNAMICS) mean=  2.81588133849740E-03
DEBUG_STATS_RL:                Uvel (DYNAMICS) S.D.=  2.08266187607238E-02
DEBUG_STATS_RL:                Vvel (DYNAMICS)  min= -1.10601062221183E-01
DEBUG_STATS_RL:                Vvel (DYNAMICS)  max=  1.05819101096727E-01
DEBUG_STATS_RL:                Vvel (DYNAMICS) mean= -2.71843863871230E-04
DEBUG_STATS_RL:                Vvel (DYNAMICS) S.D.=  1.33326258226726E-02
DEBUG_STATS_RL:                Wvel (DYNAMICS)  min= -1.17403712862435E-04
DEBUG_STATS_RL:                Wvel (DYNAMICS)  max=  8.57821429318318E-05
DEBUG_STATS_RL:                Wvel (DYNAMICS) mean= -3.92544254747211E-07
DEBUG_STATS_RL:                Wvel (DYNAMICS) S.D.=  1.21982799240714E-05
DEBUG_STATS_RL:               Theta (DYNAMICS)  min= -1.99960668378932E+00
DEBUG_STATS_RL:               Theta (DYNAMICS)  max=  3.01629973898313E+01
DEBUG_STATS_RL:               Theta (DYNAMICS) mean=  3.21342976168842E+00
DEBUG_STATS_RL:               Theta (DYNAMICS) S.D.=  5.86328136613177E+00
DEBUG_STATS_RL:                Salt (DYNAMICS)  min= -1.56125112837913E-17
DEBUG_STATS_RL:                Salt (DYNAMICS)  max=  3.74548903464482E+01
DEBUG_STATS_RL:                Salt (DYNAMICS) mean=  1.88448161326217E+01
DEBUG_STATS_RL:                Salt (DYNAMICS) S.D.=  1.73003380110698E+01
DEBUG_STATS_RL:                  Gu (DYNAMICS)  min= -1.50115858483029E-01
DEBUG_STATS_RL:                  Gu (DYNAMICS)  max=  1.40060050254056E-01
DEBUG_STATS_RL:                  Gu (DYNAMICS) mean=  3.00987824842363E-03
DEBUG_STATS_RL:                  Gu (DYNAMICS) S.D.=  2.18967716690854E-02
DEBUG_STATS_RL:                  Gv (DYNAMICS)  min= -1.06839425219283E-01
DEBUG_STATS_RL:                  Gv (DYNAMICS)  max=  1.02901963349328E-01
DEBUG_STATS_RL:                  Gv (DYNAMICS) mean=  2.12299678237158E-03
DEBUG_STATS_RL:                  Gv (DYNAMICS) S.D.=  1.35367325813117E-02
DEBUG_STATS_RL:               GuNm1 (DYNAMICS)  min= -8.13278096075346E-06
DEBUG_STATS_RL:               GuNm1 (DYNAMICS)  max=  8.15953055049289E-06
DEBUG_STATS_RL:               GuNm1 (DYNAMICS) mean= -1.89626502340419E-08
DEBUG_STATS_RL:               GuNm1 (DYNAMICS) S.D.=  1.17345161974152E-06
DEBUG_STATS_RL:               GvNm1 (DYNAMICS)  min= -1.02089213840760E-05
DEBUG_STATS_RL:               GvNm1 (DYNAMICS)  max=  1.63426869926669E-05
DEBUG_STATS_RL:               GvNm1 (DYNAMICS) mean=  7.51108838890557E-07
DEBUG_STATS_RL:               GvNm1 (DYNAMICS) S.D.=  2.60713914710064E-06
DEBUG_STATS_RL:               GtNm1 (DYNAMICS)  min= -3.43372423129547E-06
DEBUG_STATS_RL:               GtNm1 (DYNAMICS)  max=  2.55273227442936E-06
DEBUG_STATS_RL:               GtNm1 (DYNAMICS) mean=  1.33987746890598E-08
DEBUG_STATS_RL:               GtNm1 (DYNAMICS) S.D.=  2.01569726072529E-07
DEBUG_STATS_RL:               GsNm1 (DYNAMICS)  min= -5.11175095393133E-07
DEBUG_STATS_RL:               GsNm1 (DYNAMICS)  max=  3.37390873664100E-07
DEBUG_STATS_RL:               GsNm1 (DYNAMICS) mean= -8.54874201482062E-11
DEBUG_STATS_RL:               GsNm1 (DYNAMICS) S.D.=  1.77884685163325E-08
DEBUG_STATS_RL:    cg2d_b (SOLVE_FOR_PRESSURE)  min= -1.94824840430386E+04
DEBUG_STATS_RL:    cg2d_b (SOLVE_FOR_PRESSURE)  max=  2.01470695812836E+04
DEBUG_STATS_RL:    cg2d_b (SOLVE_FOR_PRESSURE) mean=  2.80111578928670E+00
DEBUG_STATS_RL:    cg2d_b (SOLVE_FOR_PRESSURE) S.D.=  3.64638246110691E+03
 cg2d: Sum(rhs),rhsMax =   3.21862344597407E-01  1.32331347238082E+00
(PID.TID 0000.0001)  cg2d: iter=     1 ; resid.=  1.00010585829689E-01
(PID.TID 0000.0001)  cg2d: iter=     2 ; resid.=  5.02137556565907E-02
(PID.TID 0000.0001)  cg2d: iter=     3 ; resid.=  3.88555033086887E-02
(PID.TID 0000.0001)  cg2d: iter=     4 ; resid.=  3.97253833226164E-02
(PID.TID 0000.0001)  cg2d: iter=     5 ; resid.=  3.89772739868260E-02
(PID.TID 0000.0001)  cg2d: iter=     6 ; resid.=  3.41103922402061E-02
(PID.TID 0000.0001)  cg2d: iter=     7 ; resid.=  2.71357840782327E-02
(PID.TID 0000.0001)  cg2d: iter=     8 ; resid.=  2.23073912229805E-02
(PID.TID 0000.0001)  cg2d: iter=     9 ; resid.=  1.85091312327228E-02
(PID.TID 0000.0001)  cg2d: iter=    10 ; resid.=  1.64432823825411E-02
(PID.TID 0000.0001)  cg2d: iter=    11 ; resid.=  1.43057708587661E-02
(PID.TID 0000.0001)  cg2d: iter=    12 ; resid.=  1.14318803284823E-02
(PID.TID 0000.0001)  cg2d: iter=    13 ; resid.=  8.77764482154944E-03
(PID.TID 0000.0001)  cg2d: iter=    14 ; resid.=  7.28672855499998E-03
(PID.TID 0000.0001)  cg2d: iter=    15 ; resid.=  6.06921242371356E-03
(PID.TID 0000.0001)  cg2d: iter=    16 ; resid.=  5.34694362363766E-03
(PID.TID 0000.0001)  cg2d: iter=    17 ; resid.=  5.27278461107154E-03
(PID.TID 0000.0001)  cg2d: iter=    18 ; resid.=  4.79077475072459E-03
(PID.TID 0000.0001)  cg2d: iter=    19 ; resid.=  3.90971072538961E-03
(PID.TID 0000.0001)  cg2d: iter=    20 ; resid.=  3.10497522905199E-03
(PID.TID 0000.0001)  cg2d: iter=    21 ; resid.=  2.33131148358741E-03
(PID.TID 0000.0001)  cg2d: iter=    22 ; resid.=  1.95709104801107E-03
(PID.TID 0000.0001)  cg2d: iter=    23 ; resid.=  1.74519262453998E-03
(PID.TID 0000.0001)  cg2d: iter=    24 ; resid.=  1.51794384227266E-03
(PID.TID 0000.0001)  cg2d: iter=    25 ; resid.=  1.27776117794954E-03
(PID.TID 0000.0001)  cg2d: iter=    26 ; resid.=  1.03980439582039E-03
(PID.TID 0000.0001)  cg2d: iter=    27 ; resid.=  8.65542035057295E-04
(PID.TID 0000.0001)  cg2d: iter=    28 ; resid.=  7.81954578844976E-04
(PID.TID 0000.0001)  cg2d: iter=    29 ; resid.=  6.52317358281932E-04
(PID.TID 0000.0001)  cg2d: iter=    30 ; resid.=  5.03179572325380E-04
(PID.TID 0000.0001)  cg2d: iter=    31 ; resid.=  3.95657390015465E-04
(PID.TID 0000.0001)  cg2d: iter=    32 ; resid.=  3.15616793527167E-04
(PID.TID 0000.0001)  cg2d: iter=    33 ; resid.=  2.64724431436868E-04
(PID.TID 0000.0001)  cg2d: iter=    34 ; resid.=  2.05634256171737E-04
(PID.TID 0000.0001)  cg2d: iter=    35 ; resid.=  1.62470747137418E-04
(PID.TID 0000.0001)  cg2d: iter=    36 ; resid.=  1.44624315264293E-04
(PID.TID 0000.0001)  cg2d: iter=    37 ; resid.=  1.36559712172422E-04
(PID.TID 0000.0001)  cg2d: iter=    38 ; resid.=  1.26777294858086E-04
(PID.TID 0000.0001)  cg2d: iter=    39 ; resid.=  1.07009947676798E-04
(PID.TID 0000.0001)  cg2d: iter=    40 ; resid.=  8.44302198065174E-05
(PID.TID 0000.0001)  cg2d: iter=    41 ; resid.=  6.80510708857771E-05
(PID.TID 0000.0001)  cg2d: iter=    42 ; resid.=  5.85192837737111E-05
(PID.TID 0000.0001)  cg2d: iter=    43 ; resid.=  5.09721687157139E-05
(PID.TID 0000.0001)  cg2d: iter=    44 ; resid.=  4.24332870993314E-05
(PID.TID 0000.0001)  cg2d: iter=    45 ; resid.=  3.18063074276687E-05
(PID.TID 0000.0001)  cg2d: iter=    46 ; resid.=  2.38638471810191E-05
(PID.TID 0000.0001)  cg2d: iter=    47 ; resid.=  1.82312602037586E-05
(PID.TID 0000.0001)  cg2d: iter=    48 ; resid.=  1.48392289965726E-05
(PID.TID 0000.0001)  cg2d: iter=    49 ; resid.=  1.15177252470359E-05
(PID.TID 0000.0001)  cg2d: iter=    50 ; resid.=  9.21885835115883E-06
(PID.TID 0000.0001)  cg2d: iter=    51 ; resid.=  7.39052886395925E-06
(PID.TID 0000.0001)  cg2d: iter=    52 ; resid.=  6.31808089387326E-06
(PID.TID 0000.0001)  cg2d: iter=    53 ; resid.=  5.50485083062523E-06
(PID.TID 0000.0001)  cg2d: iter=    54 ; resid.=  4.46840748834083E-06
(PID.TID 0000.0001)  cg2d: iter=    55 ; resid.=  3.79821538105756E-06
(PID.TID 0000.0001)  cg2d: iter=    56 ; resid.=  3.38187876506773E-06
(PID.TID 0000.0001)  cg2d: iter=    57 ; resid.=  2.97567667834289E-06
(PID.TID 0000.0001)  cg2d: iter=    58 ; resid.=  2.57198213908611E-06
(PID.TID 0000.0001)  cg2d: iter=    59 ; resid.=  2.10026781684537E-06
(PID.TID 0000.0001)  cg2d: iter=    60 ; resid.=  1.53346258959936E-06
(PID.TID 0000.0001)  cg2d: iter=    61 ; resid.=  1.12178263614407E-06
(PID.TID 0000.0001)  cg2d: iter=    62 ; resid.=  8.74466003932298E-07
(PID.TID 0000.0001)  cg2d: iter=    63 ; resid.=  7.10644469391757E-07
(PID.TID 0000.0001)  cg2d: iter=    64 ; resid.=  6.16058741566660E-07
(PID.TID 0000.0001)  cg2d: iter=    65 ; resid.=  4.85607650381093E-07
(PID.TID 0000.0001)  cg2d: iter=    66 ; resid.=  3.90280997501536E-07
(PID.TID 0000.0001)  cg2d: iter=    67 ; resid.=  3.31597068854533E-07
(PID.TID 0000.0001)  cg2d: iter=    68 ; resid.=  2.76302418532060E-07
(PID.TID 0000.0001)  cg2d: iter=    69 ; resid.=  2.28862956272010E-07
(PID.TID 0000.0001)  cg2d: iter=    70 ; resid.=  1.88733990080344E-07
(PID.TID 0000.0001)  cg2d: iter=    71 ; resid.=  1.65202284668151E-07
(PID.TID 0000.0001)  cg2d: iter=    72 ; resid.=  1.44915590637186E-07
(PID.TID 0000.0001)  cg2d: iter=    73 ; resid.=  1.31279938093011E-07
(PID.TID 0000.0001)  cg2d: iter=    74 ; resid.=  1.09575514309279E-07
(PID.TID 0000.0001)  cg2d: iter=    75 ; resid.=  9.42133155550403E-08
(PID.TID 0000.0001)  cg2d: iter=    76 ; resid.=  7.50883515621271E-08
(PID.TID 0000.0001)  cg2d: iter=    77 ; resid.=  5.88503611049509E-08
(PID.TID 0000.0001)  cg2d: iter=    78 ; resid.=  4.80331664228118E-08
(PID.TID 0000.0001)  cg2d: iter=    79 ; resid.=  4.25195098752833E-08
(PID.TID 0000.0001)  cg2d: iter=    80 ; resid.=  3.56041563826526E-08
(PID.TID 0000.0001)  cg2d: iter=    81 ; resid.=  2.82799446177758E-08
(PID.TID 0000.0001)  cg2d: iter=    82 ; resid.=  2.11444470366934E-08
(PID.TID 0000.0001)  cg2d: iter=    83 ; resid.=  1.54049088434469E-08
(PID.TID 0000.0001)  cg2d: iter=    84 ; resid.=  1.14457066031913E-08
(PID.TID 0000.0001)  cg2d: iter=    85 ; resid.=  8.13501681688583E-09
(PID.TID 0000.0001)  cg2d: iter=    86 ; resid.=  5.79147032496869E-09
(PID.TID 0000.0001)  cg2d: iter=    87 ; resid.=  4.60415973257012E-09
(PID.TID 0000.0001)  cg2d: iter=    88 ; resid.=  3.40875718765230E-09
(PID.TID 0000.0001)  cg2d: iter=    89 ; resid.=  2.52375466897677E-09
(PID.TID 0000.0001)  cg2d: iter=    90 ; resid.=  2.01677594817190E-09
(PID.TID 0000.0001)  cg2d: iter=    91 ; resid.=  1.76802757396205E-09
(PID.TID 0000.0001)  cg2d: iter=    92 ; resid.=  1.54511024349554E-09
(PID.TID 0000.0001)  cg2d: iter=    93 ; resid.=  1.24913095847354E-09
(PID.TID 0000.0001)  cg2d: iter=    94 ; resid.=  9.55755292487121E-10
(PID.TID 0000.0001)  cg2d: iter=    95 ; resid.=  7.94303329707045E-10
(PID.TID 0000.0001)  cg2d: iter=    96 ; resid.=  7.03997664692051E-10
(PID.TID 0000.0001)  cg2d: iter=    97 ; resid.=  5.72878284348747E-10
(PID.TID 0000.0001)  cg2d: iter=    98 ; resid.=  4.29164912245798E-10
(PID.TID 0000.0001)  cg2d: iter=    99 ; resid.=  3.03675456472028E-10
(PID.TID 0000.0001)  cg2d: iter=   100 ; resid.=  2.30853101548684E-10
(PID.TID 0000.0001)  cg2d: iter=   101 ; resid.=  1.92378007132118E-10
(PID.TID 0000.0001)  cg2d: iter=   102 ; resid.=  1.76129380988631E-10
(PID.TID 0000.0001)  cg2d: iter=   103 ; resid.=  1.49148111186080E-10
(PID.TID 0000.0001)  cg2d: iter=   104 ; resid.=  1.25738111445133E-10
(PID.TID 0000.0001)  cg2d: iter=   105 ; resid.=  1.04567477087366E-10
(PID.TID 0000.0001)  cg2d: iter=   106 ; resid.=  8.45636510713000E-11
(PID.TID 0000.0001)  cg2d: iter=   107 ; resid.=  6.67459986900898E-11
(PID.TID 0000.0001)  cg2d: iter=   108 ; resid.=  5.16891378162037E-11
(PID.TID 0000.0001)  cg2d: iter=   109 ; resid.=  4.06837503714649E-11
(PID.TID 0000.0001)  cg2d: iter=   110 ; resid.=  2.72123986036511E-11
(PID.TID 0000.0001)  cg2d: iter=   111 ; resid.=  1.93469200313317E-11
(PID.TID 0000.0001)  cg2d: iter=   112 ; resid.=  1.55420924317165E-11
(PID.TID 0000.0001)  cg2d: iter=   113 ; resid.=  1.30253251809947E-11
(PID.TID 0000.0001)  cg2d: iter=   114 ; resid.=  9.98338591059097E-12
(PID.TID 0000.0001)  cg2d: iter=   115 ; resid.=  7.53732564826237E-12
(PID.TID 0000.0001)  cg2d: iter=   116 ; resid.=  5.33960634436654E-12
(PID.TID 0000.0001)  cg2d: iter=   117 ; resid.=  3.94795022821616E-12
(PID.TID 0000.0001)  cg2d: iter=   118 ; resid.=  2.79417713062773E-12
(PID.TID 0000.0001)  cg2d: iter=   119 ; resid.=  2.31371557338471E-12
(PID.TID 0000.0001)  cg2d: iter=   120 ; resid.=  2.01325280373295E-12
(PID.TID 0000.0001)  cg2d: iter=   121 ; resid.=  1.56833612364130E-12
(PID.TID 0000.0001)  cg2d: iter=   122 ; resid.=  1.14631486910738E-12
(PID.TID 0000.0001)  cg2d: iter=   123 ; resid.=  8.15456293392734E-13
(PID.TID 0000.0001)  cg2d: iter=   124 ; resid.=  5.67605096252936E-13
(PID.TID 0000.0001)  cg2d: iter=   125 ; resid.=  4.24838900861340E-13
(PID.TID 0000.0001)  cg2d: iter=   126 ; resid.=  3.42165297843467E-13
(PID.TID 0000.0001)  cg2d: iter=   127 ; resid.=  2.57725795957698E-13
(PID.TID 0000.0001)  cg2d: iter=   128 ; resid.=  1.91821518168400E-13
(PID.TID 0000.0001)  cg2d: iter=   129 ; resid.=  1.31136830456511E-13
(PID.TID 0000.0001)  cg2d: iter=   130 ; resid.=  9.66855035219636E-14
DEBUG_STATS_RL:    cg2d_x (SOLVE_FOR_PRESSURE)  min= -1.57432361325625E+01
DEBUG_STATS_RL:    cg2d_x (SOLVE_FOR_PRESSURE)  max=  8.26200162124024E+00
DEBUG_STATS_RL:    cg2d_x (SOLVE_FOR_PRESSURE) mean= -1.66489727733669E+00
DEBUG_STATS_RL:    cg2d_x (SOLVE_FOR_PRESSURE) S.D.=  6.32631687761601E+00
(PID.TID 0000.0001)      cg2d_init_res =   3.98426287812646E-01
(PID.TID 0000.0001)      cg2d_iters(min,last) =      -1     130
(PID.TID 0000.0001)      cg2d_last_res =   9.66855035219636E-14
(PID.TID 0000.0001) // =======================================================
(PID.TID 0000.0001) // Begin MONITOR dynamic field statistics
(PID.TID 0000.0001) // =======================================================
(PID.TID 0000.0001) %MON time_tsnumber                =                    39
(PID.TID 0000.0001) %MON time_secondsf                =   3.3696000000000E+06
(PID.TID 0000.0001) %MON dynstat_eta_max              =   8.4220200012644E-01
(PID.TID 0000.0001) %MON dynstat_eta_min              =  -1.6048151001593E+00
(PID.TID 0000.0001) %MON dynstat_eta_mean             =  -2.9226169992295E-03
(PID.TID 0000.0001) %MON dynstat_eta_sd               =   5.5771185163646E-01
(PID.TID 0000.0001) %MON dynstat_eta_del2             =   2.1531947279438E-03
(PID.TID 0000.0001) %MON dynstat_uvel_max             =   1.4049919643506E-01
(PID.TID 0000.0001) %MON dynstat_uvel_min             =  -1.4922544430857E-01
(PID.TID 0000.0001) %MON dynstat_uvel_mean            =   1.3090454981455E-03
(PID.TID 0000.0001) %MON dynstat_uvel_sd              =   1.2728394973957E-02
(PID.TID 0000.0001) %MON dynstat_uvel_del2            =   8.1147403005634E-05
(PID.TID 0000.0001) %MON dynstat_vvel_max             =   1.0595610163508E-01
(PID.TID 0000.0001) %MON dynstat_vvel_min             =  -1.1133729243142E-01
(PID.TID 0000.0001) %MON dynstat_vvel_mean            =   3.4869879802966E-05
(PID.TID 0000.0001) %MON dynstat_vvel_sd              =   8.7611892089326E-03
(PID.TID 0000.0001) %MON dynstat_vvel_del2            =   7.5513277204053E-05
(PID.TID 0000.0001) %MON dynstat_wvel_max             =   8.8253139303803E-05
(PID.TID 0000.0001) %MON dynstat_wvel_min             =  -1.1934338694799E-04
(PID.TID 0000.0001) %MON dynstat_wvel_mean            =   5.4601918346706E-22
(PID.TID 0000.0001) %MON dynstat_wvel_sd              =   1.3726816283522E-05
(PID.TID 0000.0001) %MON dynstat_wvel_del2            =   1.4590115153065E-07
(PID.TID 0000.0001) %MON dynstat_theta_max            =   3.0162997389831E+01
(PID.TID 0000.0001) %MON dynstat_theta_min            =  -1.9996066837893E+00
(PID.TID 0000.0001) %MON dynstat_theta_mean           =   3.6218978499851E+00
(PID.TID 0000.0001) %MON dynstat_theta_sd             =   4.4190547127803E+00
(PID.TID 0000.0001) %MON dynstat_theta_del2           =   4.7442158417792E-03
(PID.TID 0000.0001) %MON dynstat_salt_max             =   3.7454890346448E+01
(PID.TID 0000.0001) %MON dynstat_salt_min             =   2.9824409799234E+01
(PID.TID 0000.0001) %MON dynstat_salt_mean            =   3.4717979627557E+01
(PID.TID 0000.0001) %MON dynstat_salt_sd              =   2.9630353190054E-01
(PID.TID 0000.0001) %MON dynstat_salt_del2            =   9.8576707723517E-04
(PID.TID 0000.0001) %MON dynstat_sst_max              =   3.0162997389831E+01
(PID.TID 0000.0001) %MON dynstat_sst_min              =  -1.9996066837893E+00
(PID.TID 0000.0001) %MON dynstat_sst_mean             =   1.8825063627241E+01
(PID.TID 0000.0001) %MON dynstat_sst_sd               =   9.0185645941399E+00
(PID.TID 0000.0001) %MON dynstat_sst_del2             =   2.6819160311972E-02
(PID.TID 0000.0001) %MON dynstat_sss_max              =   3.7430034342923E+01
(PID.TID 0000.0001) %MON dynstat_sss_min              =   2.9824409799234E+01
(PID.TID 0000.0001) %MON dynstat_sss_mean             =   3.4844052428280E+01
(PID.TID 0000.0001) %MON dynstat_sss_sd               =   9.7655167280813E-01
(PID.TID 0000.0001) %MON dynstat_sss_del2             =   7.8407215778815E-03
(PID.TID 0000.0001) %MON forcing_qnet_max             =   3.6793170572917E+02
(PID.TID 0000.0001) %MON forcing_qnet_min             =  -1.7451060384115E+02
(PID.TID 0000.0001) %MON forcing_qnet_mean            =  -1.4559615150767E+01
(PID.TID 0000.0001) %MON forcing_qnet_sd              =   8.6177901833202E+01
(PID.TID 0000.0001) %MON forcing_qnet_del2            =   9.5684138500013E-01
(PID.TID 0000.0001) %MON forcing_qsw_max              =   0.0000000000000E+00
(PID.TID 0000.0001) %MON forcing_qsw_min              =   0.0000000000000E+00
(PID.TID 0000.0001) %MON forcing_qsw_mean             =   0.0000000000000E+00
(PID.TID 0000.0001) %MON forcing_qsw_sd               =   0.0000000000000E+00
(PID.TID 0000.0001) %MON forcing_qsw_del2             =   0.0000000000000E+00
(PID.TID 0000.0001) %MON forcing_empmr_max            =   7.4950175132926E-05
(PID.TID 0000.0001) %MON forcing_empmr_min            =  -7.7987774223705E-05
(PID.TID 0000.0001) %MON forcing_empmr_mean           =   9.3863219908967E-07
(PID.TID 0000.0001) %MON forcing_empmr_sd             =   2.8025183724210E-05
(PID.TID 0000.0001) %MON forcing_empmr_del2           =   3.5387045439018E-07
(PID.TID 0000.0001) %MON forcing_fu_max               =   2.9492541849613E-01
(PID.TID 0000.0001) %MON forcing_fu_min               =  -2.0411288440228E-01
(PID.TID 0000.0001) %MON forcing_fu_mean              =   1.7250640108353E-02
(PID.TID 0000.0001) %MON forcing_fu_sd                =   9.1176576117499E-02
(PID.TID 0000.0001) %MON forcing_fu_del2              =   6.9491420823166E-04
(PID.TID 0000.0001) %MON forcing_fv_max               =   1.8680121054252E-01
(PID.TID 0000.0001) %MON forcing_fv_min               =  -1.7747596303622E-01
(PID.TID 0000.0001) %MON forcing_fv_mean              =  -6.7598985939541E-03
(PID.TID 0000.0001) %MON forcing_fv_sd                =   4.4539193201071E-02
(PID.TID 0000.0001) %MON forcing_fv_del2              =   4.9416249691419E-04
(PID.TID 0000.0001) %MON trAdv_CFL_u_max              =   4.4794911115654E-02
(PID.TID 0000.0001) %MON trAdv_CFL_v_max              =   2.1611542487216E-02
(PID.TID 0000.0001) %MON trAdv_CFL_w_max              =   3.1776071571726E-02
(PID.TID 0000.0001) %MON advcfl_uvel_max              =   4.6439988796363E-02
(PID.TID 0000.0001) %MON advcfl_vvel_max              =   2.1631050283934E-02
(PID.TID 0000.0001) %MON advcfl_wvel_max              =   2.8895010736054E-02
(PID.TID 0000.0001) %MON advcfl_W_hf_max              =   3.4674012883265E-02
(PID.TID 0000.0001) %MON pe_b_mean                    =   3.9802731180489E-04
(PID.TID 0000.0001) %MON ke_max                       =   1.3626020280010E-02
(PID.TID 0000.0001) %MON ke_mean                      =   1.0884380824641E-04
(PID.TID 0000.0001) %MON ke_vol                       =   1.3226782436723E+18
(PID.TID 0000.0001) %MON vort_r_min                   =  -4.2981869592420E-07
(PID.TID 0000.0001) %MON vort_r_max                   =   4.1065666145161E-07
(PID.TID 0000.0001) %MON vort_a_mean                  =  -2.5274807095735E-05
(PID.TID 0000.0001) %MON vort_a_sd                    =   7.3604525242575E-05
(PID.TID 0000.0001) %MON vort_p_mean                  =  -3.1845655419317E-05
(PID.TID 0000.0001) %MON vort_p_sd                    =   1.3162461888237E-04
(PID.TID 0000.0001) %MON surfExpan_theta_mean         =   1.7497711554038E-07
(PID.TID 0000.0001) %MON surfExpan_salt_mean          =   4.7821832885840E-08
(PID.TID 0000.0001) // =======================================================
(PID.TID 0000.0001) // End MONITOR dynamic field statistics
(PID.TID 0000.0001) // =======================================================
 EXTERNAL_FIELDS_LOAD,        39 : iP,iLd,i0,i1=    1    2    1    2 ; Wght=  0.2000000000  0.8000000000
 EXTERNAL_FIELDS_LOAD: (fu0,1),fu,fv= -3.5633E-02 -1.4435E-02 -1.8674E-02 -2.5560E-02
 EXTERNAL_FIELDS_LOAD: SST,SSS,Q,E-P= -2.3380E-01  3.4480E+01  2.4554E+02  9.0291E-06
DEBUG_STATS_RL:          Uvel (THERMODYNAMICS)  min= -1.49225444308575E-01
DEBUG_STATS_RL:          Uvel (THERMODYNAMICS)  max=  1.40499196435055E-01
DEBUG_STATS_RL:          Uvel (THERMODYNAMICS) mean=  3.19400129229538E-03
DEBUG_STATS_RL:          Uvel (THERMODYNAMICS) S.D.=  2.15957762182978E-02
DEBUG_STATS_RL:          Vvel (THERMODYNAMICS)  min= -1.11337292431419E-01
DEBUG_STATS_RL:          Vvel (THERMODYNAMICS)  max=  1.05956101635078E-01
DEBUG_STATS_RL:          Vvel (THERMODYNAMICS) mean= -1.69821140387449E-04
DEBUG_STATS_RL:          Vvel (THERMODYNAMICS) S.D.=  1.34548121342679E-02
DEBUG_STATS_RL:          Wvel (THERMODYNAMICS)  min= -1.19343386947988E-04
DEBUG_STATS_RL:          Wvel (THERMODYNAMICS)  max=  8.82531393038027E-05
DEBUG_STATS_RL:          Wvel (THERMODYNAMICS) mean= -3.81583965133898E-07
DEBUG_STATS_RL:          Wvel (THERMODYNAMICS) S.D.=  1.20672689103680E-05
DEBUG_STATS_RL:         Theta (THERMODYNAMICS)  min= -1.99838199299605E+00
DEBUG_STATS_RL:         Theta (THERMODYNAMICS)  max=  3.01852242376861E+01
DEBUG_STATS_RL:         Theta (THERMODYNAMICS) mean=  3.21404835007643E+00
DEBUG_STATS_RL:         Theta (THERMODYNAMICS) S.D.=  5.86402346287327E+00
DEBUG_STATS_RL:          Salt (THERMODYNAMICS)  min= -1.56125112837913E-17
DEBUG_STATS_RL:          Salt (THERMODYNAMICS)  max=  3.74549242566797E+01
DEBUG_STATS_RL:          Salt (THERMODYNAMICS) mean=  1.88448203712528E+01
DEBUG_STATS_RL:          Salt (THERMODYNAMICS) S.D.=  1.73003425452980E+01
DEBUG_STATS_RL:         GtNm1 (THERMODYNAMICS)  min= -3.61644388027732E-06
DEBUG_STATS_RL:         GtNm1 (THERMODYNAMICS)  max=  2.68986225869137E-06
DEBUG_STATS_RL:         GtNm1 (THERMODYNAMICS) mean=  1.34837778373550E-08
DEBUG_STATS_RL:         GtNm1 (THERMODYNAMICS) S.D.=  2.00684277722339E-07
DEBUG_STATS_RL:         GsNm1 (THERMODYNAMICS)  min= -4.23592187683166E-07
DEBUG_STATS_RL:         GsNm1 (THERMODYNAMICS)  max=  3.01116277365147E-07
DEBUG_STATS_RL:         GsNm1 (THERMODYNAMICS) mean= -6.42850195201145E-12
DEBUG_STATS_RL:         GsNm1 (THERMODYNAMICS) S.D.=  1.78572732662684E-08
DEBUG_STATS_RL:                EtaN (DYNAMICS)  min= -1.60481510015935E+00
DEBUG_STATS_RL:                EtaN (DYNAMICS)  max=  8.42202000126440E-01
DEBUG_STATS_RL:                EtaN (DYNAMICS) mean= -1.69714299422701E-01
DEBUG_STATS_RL:                EtaN (DYNAMICS) S.D.=  6.44884493131097E-01
DEBUG_STATS_RL:                Uvel (DYNAMICS)  min= -1.49225444308575E-01
DEBUG_STATS_RL:                Uvel (DYNAMICS)  max=  1.40499196435055E-01
DEBUG_STATS_RL:                Uvel (DYNAMICS) mean=  3.19400129229538E-03
DEBUG_STATS_RL:                Uvel (DYNAMICS) S.D.=  2.15957762182978E-02
DEBUG_STATS_RL:                Vvel (DYNAMICS)  min= -1.11337292431419E-01
DEBUG_STATS_RL:                Vvel (DYNAMICS)  max=  1.05956101635078E-01
DEBUG_STATS_RL:                Vvel (DYNAMICS) mean= -1.69821140387449E-04
DEBUG_STATS_RL:                Vvel (DYNAMICS) S.D.=  1.34548121342679E-02
DEBUG_STATS_RL:                Wvel (DYNAMICS)  min= -1.19343386947988E-04
DEBUG_STATS_RL:                Wvel (DYNAMICS)  max=  8.82531393038027E-05
DEBUG_STATS_RL:                Wvel (DYNAMICS) mean= -3.81583965133898E-07
DEBUG_STATS_RL:                Wvel (DYNAMICS) S.D.=  1.20672689103680E-05
DEBUG_STATS_RL:               Theta (DYNAMICS)  min= -1.99838199299605E+00
DEBUG_STATS_RL:               Theta (DYNAMICS)  max=  3.01852242376861E+01
DEBUG_STATS_RL:               Theta (DYNAMICS) mean=  3.21404835007643E+00
DEBUG_STATS_RL:               Theta (DYNAMICS) S.D.=  5.86402346287327E+00
DEBUG_STATS_RL:                Salt (DYNAMICS)  min= -1.56125112837913E-17
DEBUG_STATS_RL:                Salt (DYNAMICS)  max=  3.74549242566797E+01
DEBUG_STATS_RL:                Salt (DYNAMICS) mean=  1.88448203712528E+01
DEBUG_STATS_RL:                Salt (DYNAMICS) S.D.=  1.73003425452980E+01
DEBUG_STATS_RL:                  Gu (DYNAMICS)  min= -1.46404986961235E-01
DEBUG_STATS_RL:                  Gu (DYNAMICS)  max=  1.46782125210899E-01
DEBUG_STATS_RL:                  Gu (DYNAMICS) mean=  3.38845510859637E-03
DEBUG_STATS_RL:                  Gu (DYNAMICS) S.D.=  2.26227876316878E-02
DEBUG_STATS_RL:                  Gv (DYNAMICS)  min= -1.07400786542713E-01
DEBUG_STATS_RL:                  Gv (DYNAMICS)  max=  1.02669725035028E-01
DEBUG_STATS_RL:                  Gv (DYNAMICS) mean=  2.27983205748903E-03
DEBUG_STATS_RL:                  Gv (DYNAMICS) S.D.=  1.36802923884362E-02
DEBUG_STATS_RL:               GuNm1 (DYNAMICS)  min= -8.22536386923814E-06
DEBUG_STATS_RL:               GuNm1 (DYNAMICS)  max=  8.22761400072188E-06
DEBUG_STATS_RL:               GuNm1 (DYNAMICS) mean= -1.86072764607884E-08
DEBUG_STATS_RL:               GuNm1 (DYNAMICS) S.D.=  1.17115597292987E-06
DEBUG_STATS_RL:               GvNm1 (DYNAMICS)  min= -1.01092040774221E-05
DEBUG_STATS_RL:               GvNm1 (DYNAMICS)  max=  1.63329079597636E-05
DEBUG_STATS_RL:               GvNm1 (DYNAMICS) mean=  7.50444667057164E-07
DEBUG_STATS_RL:               GvNm1 (DYNAMICS) S.D.=  2.60123662810628E-06
DEBUG_STATS_RL:               GtNm1 (DYNAMICS)  min= -3.61644388027732E-06
DEBUG_STATS_RL:               GtNm1 (DYNAMICS)  max=  2.68986225869137E-06
DEBUG_STATS_RL:               GtNm1 (DYNAMICS) mean=  1.34837778373550E-08
DEBUG_STATS_RL:               GtNm1 (DYNAMICS) S.D.=  2.00684277722339E-07
DEBUG_STATS_RL:               GsNm1 (DYNAMICS)  min= -4.23592187683166E-07
DEBUG_STATS_RL:               GsNm1 (DYNAMICS)  max=  3.01116277365147E-07
DEBUG_STATS_RL:               GsNm1 (DYNAMICS) mean= -6.42850195201145E-12
DEBUG_STATS_RL:               GsNm1 (DYNAMICS) S.D.=  1.78572732662684E-08
DEBUG_STATS_RL:    cg2d_b (SOLVE_FOR_PRESSURE)  min= -1.94550850000318E+04
DEBUG_STATS_RL:    cg2d_b (SOLVE_FOR_PRESSURE)  max=  2.05648454921775E+04
DEBUG_STATS_RL:    cg2d_b (SOLVE_FOR_PRESSURE) mean=  2.87626832164784E+00
DEBUG_STATS_RL:    cg2d_b (SOLVE_FOR_PRESSURE) S.D.=  3.62916696281633E+03
 cg2d: Sum(rhs),rhsMax =   3.23783670883721E-01  1.35075411277230E+00
(PID.TID 0000.0001)  cg2d: iter=     1 ; resid.=  9.86244528303388E-02
(PID.TID 0000.0001)  cg2d: iter=     2 ; resid.=  4.81058058513093E-02
(PID.TID 0000.0001)  cg2d: iter=     3 ; resid.=  3.72059499417516E-02
(PID.TID 0000.0001)  cg2d: iter=     4 ; resid.=  3.75783862282240E-02
(PID.TID 0000.0001)  cg2d: iter=     5 ; resid.=  3.64075107880085E-02
(PID.TID 0000.0001)  cg2d: iter=     6 ; resid.=  3.18860931449423E-02
(PID.TID 0000.0001)  cg2d: iter=     7 ; resid.=  2.53023922279586E-02
(PID.TID 0000.0001)  cg2d: iter=     8 ; resid.=  2.12373761924559E-02
(PID.TID 0000.0001)  cg2d: iter=     9 ; resid.=  1.82602550650620E-02
(PID.TID 0000.0001)  cg2d: iter=    10 ; resid.=  1.67457611744542E-02
(PID.TID 0000.0001)  cg2d: iter=    11 ; resid.=  1.46700754851948E-02
(PID.TID 0000.0001)  cg2d: iter=    12 ; resid.=  1.16068479363525E-02
(PID.TID 0000.0001)  cg2d: iter=    13 ; resid.=  8.81896409684040E-03
(PID.TID 0000.0001)  cg2d: iter=    14 ; resid.=  7.20542598506740E-03
(PID.TID 0000.0001)  cg2d: iter=    15 ; resid.=  6.01352338194725E-03
(PID.TID 0000.0001)  cg2d: iter=    16 ; resid.=  5.34061236435435E-03
(PID.TID 0000.0001)  cg2d: iter=    17 ; resid.=  5.30845612937297E-03
(PID.TID 0000.0001)  cg2d: iter=    18 ; resid.=  4.78301485848505E-03
(PID.TID 0000.0001)  cg2d: iter=    19 ; resid.=  3.89918437219672E-03
(PID.TID 0000.0001)  cg2d: iter=    20 ; resid.=  3.10401158567994E-03
(PID.TID 0000.0001)  cg2d: iter=    21 ; resid.=  2.34595135180148E-03
(PID.TID 0000.0001)  cg2d: iter=    22 ; resid.=  1.98426123881550E-03
(PID.TID 0000.0001)  cg2d: iter=    23 ; resid.=  1.74851800681366E-03
(PID.TID 0000.0001)  cg2d: iter=    24 ; resid.=  1.48578242398735E-03
(PID.TID 0000.0001)  cg2d: iter=    25 ; resid.=  1.22298191211996E-03
(PID.TID 0000.0001)  cg2d: iter=    26 ; resid.=  9.82373784714370E-04
(PID.TID 0000.0001)  cg2d: iter=    27 ; resid.=  8.13396594296845E-04
(PID.TID 0000.0001)  cg2d: iter=    28 ; resid.=  7.37669103399672E-04
(PID.TID 0000.0001)  cg2d: iter=    29 ; resid.=  6.27655734973925E-04
(PID.TID 0000.0001)  cg2d: iter=    30 ; resid.=  4.91311729992834E-04
(PID.TID 0000.0001)  cg2d: iter=    31 ; resid.=  3.85247278975239E-04
(PID.TID 0000.0001)  cg2d: iter=    32 ; resid.=  3.05929340296072E-04
(PID.TID 0000.0001)  cg2d: iter=    33 ; resid.=  2.59537443690472E-04
(PID.TID 0000.0001)  cg2d: iter=    34 ; resid.=  2.04907892049513E-04
(PID.TID 0000.0001)  cg2d: iter=    35 ; resid.=  1.62379214934761E-04
(PID.TID 0000.0001)  cg2d: iter=    36 ; resid.=  1.42864709200801E-04
(PID.TID 0000.0001)  cg2d: iter=    37 ; resid.=  1.32160982046270E-04
(PID.TID 0000.0001)  cg2d: iter=    38 ; resid.=  1.21255495025877E-04
(PID.TID 0000.0001)  cg2d: iter=    39 ; resid.=  1.02923631628547E-04
(PID.TID 0000.0001)  cg2d: iter=    40 ; resid.=  8.17708587469743E-05
(PID.TID 0000.0001)  cg2d: iter=    41 ; resid.=  6.75457563755601E-05
(PID.TID 0000.0001)  cg2d: iter=    42 ; resid.=  5.82402675439106E-05
(PID.TID 0000.0001)  cg2d: iter=    43 ; resid.=  4.97235634245739E-05
(PID.TID 0000.0001)  cg2d: iter=    44 ; resid.=  4.03112567170458E-05
(PID.TID 0000.0001)  cg2d: iter=    45 ; resid.=  2.96580954075644E-05
(PID.TID 0000.0001)  cg2d: iter=    46 ; resid.=  2.17687155561557E-05
(PID.TID 0000.0001)  cg2d: iter=    47 ; resid.=  1.63465523825773E-05
(PID.TID 0000.0001)  cg2d: iter=    48 ; resid.=  1.30824915784814E-05
(PID.TID 0000.0001)  cg2d: iter=    49 ; resid.=  1.00379619539421E-05
(PID.TID 0000.0001)  cg2d: iter=    50 ; resid.=  7.85628532307781E-06
(PID.TID 0000.0001)  cg2d: iter=    51 ; resid.=  6.06387737345655E-06
(PID.TID 0000.0001)  cg2d: iter=    52 ; resid.=  4.87342553900493E-06
(PID.TID 0000.0001)  cg2d: iter=    53 ; resid.=  4.05996820370980E-06
(PID.TID 0000.0001)  cg2d: iter=    54 ; resid.=  3.23065671558634E-06
(PID.TID 0000.0001)  cg2d: iter=    55 ; resid.=  2.63711680351260E-06
(PID.TID 0000.0001)  cg2d: iter=    56 ; resid.=  2.26113449340960E-06
(PID.TID 0000.0001)  cg2d: iter=    57 ; resid.=  1.99023239761802E-06
(PID.TID 0000.0001)  cg2d: iter=    58 ; resid.=  1.77526951761464E-06
(PID.TID 0000.0001)  cg2d: iter=    59 ; resid.=  1.49795098281333E-06
(PID.TID 0000.0001)  cg2d: iter=    60 ; resid.=  1.13578612707322E-06
(PID.TID 0000.0001)  cg2d: iter=    61 ; resid.=  8.62620487918262E-07
(PID.TID 0000.0001)  cg2d: iter=    62 ; resid.=  6.98171683605037E-07
(PID.TID 0000.0001)  cg2d: iter=    63 ; resid.=  5.64831639653656E-07
(PID.TID 0000.0001)  cg2d: iter=    64 ; resid.=  4.81082392016823E-07
(PID.TID 0000.0001)  cg2d: iter=    65 ; resid.=  3.70181495457293E-07
(PID.TID 0000.0001)  cg2d: iter=    66 ; resid.=  2.86387016047382E-07
(PID.TID 0000.0001)  cg2d: iter=    67 ; resid.=  2.33036615358460E-07
(PID.TID 0000.0001)  cg2d: iter=    68 ; resid.=  1.82812491323042E-07
(PID.TID 0000.0001)  cg2d: iter=    69 ; resid.=  1.42071562896757E-07
(PID.TID 0000.0001)  cg2d: iter=    70 ; resid.=  1.10399302140385E-07
(PID.TID 0000.0001)  cg2d: iter=    71 ; resid.=  9.05639049016611E-08
(PID.TID 0000.0001)  cg2d: iter=    72 ; resid.=  7.52008708151071E-08
(PID.TID 0000.0001)  cg2d: iter=    73 ; resid.=  6.54199473500805E-08
(PID.TID 0000.0001)  cg2d: iter=    74 ; resid.=  5.46520008093701E-08
(PID.TID 0000.0001)  cg2d: iter=    75 ; resid.=  4.73152560250899E-08
(PID.TID 0000.0001)  cg2d: iter=    76 ; resid.=  3.85680238191921E-08
(PID.TID 0000.0001)  cg2d: iter=    77 ; resid.=  3.07549698796947E-08
(PID.TID 0000.0001)  cg2d: iter=    78 ; resid.=  2.60051707841535E-08
(PID.TID 0000.0001)  cg2d: iter=    79 ; resid.=  2.48518119102854E-08
(PID.TID 0000.0001)  cg2d: iter=    80 ; resid.=  2.30992635009177E-08
(PID.TID 0000.0001)  cg2d: iter=    81 ; resid.=  2.03496716444940E-08
(PID.TID 0000.0001)  cg2d: iter=    82 ; resid.=  1.68138413062701E-08
(PID.TID 0000.0001)  cg2d: iter=    83 ; resid.=  1.33314902393658E-08
(PID.TID 0000.0001)  cg2d: iter=    84 ; resid.=  1.04359020037327E-08
(PID.TID 0000.0001)  cg2d: iter=    85 ; resid.=  7.71127163009017E-09
(PID.TID 0000.0001)  cg2d: iter=    86 ; resid.=  5.59455414860085E-09
(PID.TID 0000.0001)  cg2d: iter=    87 ; resid.=  4.48528621213917E-09
(PID.TID 0000.0001)  cg2d: iter=    88 ; resid.=  3.32272202941406E-09
(PID.TID 0000.0001)  cg2d: iter=    89 ; resid.=  2.46575208895456E-09
(PID.TID 0000.0001)  cg2d: iter=    90 ; resid.=  1.94556939996511E-09
(PID.TID 0000.0001)  cg2d: iter=    91 ; resid.=  1.67607946878229E-09
(PID.TID 0000.0001)  cg2d: iter=    92 ; resid.=  1.44593367661949E-09
(PID.TID 0000.0001)  cg2d: iter=    93 ; resid.=  1.15459393198099E-09
(PID.TID 0000.0001)  cg2d: iter=    94 ; resid.=  8.60609406932836E-10
(PID.TID 0000.0001)  cg2d: iter=    95 ; resid.=  6.85752240410082E-10
(PID.TID 0000.0001)  cg2d: iter=    96 ; resid.=  5.93663233471189E-10
(PID.TID 0000.0001)  cg2d: iter=    97 ; resid.=  4.83326581127770E-10
(PID.TID 0000.0001)  cg2d: iter=    98 ; resid.=  3.59908148841926E-10
(PID.TID 0000.0001)  cg2d: iter=    99 ; resid.=  2.53207924407021E-10
(PID.TID 0000.0001)  cg2d: iter=   100 ; resid.=  1.92828320963294E-10
(PID.TID 0000.0001)  cg2d: iter=   101 ; resid.=  1.57018893989293E-10
(PID.TID 0000.0001)  cg2d: iter=   102 ; resid.=  1.38147507359311E-10
(PID.TID 0000.0001)  cg2d: iter=   103 ; resid.=  1.15731613090157E-10
(PID.TID 0000.0001)  cg2d: iter=   104 ; resid.=  9.99610704983600E-11
(PID.TID 0000.0001)  cg2d: iter=   105 ; resid.=  8.65681607836087E-11
(PID.TID 0000.0001)  cg2d: iter=   106 ; resid.=  7.23058485366856E-11
(PID.TID 0000.0001)  cg2d: iter=   107 ; resid.=  5.83533845230724E-11
(PID.TID 0000.0001)  cg2d: iter=   108 ; resid.=  4.64195413127871E-11
(PID.TID 0000.0001)  cg2d: iter=   109 ; resid.=  3.82181648802771E-11
(PID.TID 0000.0001)  cg2d: iter=   110 ; resid.=  2.65350354732803E-11
(PID.TID 0000.0001)  cg2d: iter=   111 ; resid.=  1.99404703887343E-11
(PID.TID 0000.0001)  cg2d: iter=   112 ; resid.=  1.66517126399573E-11
(PID.TID 0000.0001)  cg2d: iter=   113 ; resid.=  1.38318276292744E-11
(PID.TID 0000.0001)  cg2d: iter=   114 ; resid.=  1.04626576973256E-11
(PID.TID 0000.0001)  cg2d: iter=   115 ; resid.=  7.71529286677690E-12
(PID.TID 0000.0001)  cg2d: iter=   116 ; resid.=  5.38319975271386E-12
(PID.TID 0000.0001)  cg2d: iter=   117 ; resid.=  4.02336566613511E-12
(PID.TID 0000.0001)  cg2d: iter=   118 ; resid.=  2.91310327723316E-12
(PID.TID 0000.0001)  cg2d: iter=   119 ; resid.=  2.39105562695909E-12
(PID.TID 0000.0001)  cg2d: iter=   120 ; resid.=  2.03477743309832E-12
(PID.TID 0000.0001)  cg2d: iter=   121 ; resid.=  1.57734654331635E-12
(PID.TID 0000.0001)  cg2d: iter=   122 ; resid.=  1.16443494031981E-12
(PID.TID 0000.0001)  cg2d: iter=   123 ; resid.=  8.41488360734093E-13
(PID.TID 0000.0001)  cg2d: iter=   124 ; resid.=  5.96250535285881E-13
(PID.TID 0000.0001)  cg2d: iter=   125 ; resid.=  4.56370473800763E-13
(PID.TID 0000.0001)  cg2d: iter=   126 ; resid.=  3.67071887050882E-13
(PID.TID 0000.0001)  cg2d: iter=   127 ; resid.=  2.68215705896541E-13
(PID.TID 0000.0001)  cg2d: iter=   128 ; resid.=  1.95909646995709E-13
(PID.TID 0000.0001)  cg2d: iter=   129 ; resid.=  1.34365613397272E-13
(PID.TID 0000.0001)  cg2d: iter=   130 ; resid.=  9.87399578918535E-14
DEBUG_STATS_RL:    cg2d_x (SOLVE_FOR_PRESSURE)  min= -1.57353510065164E+01
DEBUG_STATS_RL:    cg2d_x (SOLVE_FOR_PRESSURE)  max=  8.18443268660870E+00
DEBUG_STATS_RL:    cg2d_x (SOLVE_FOR_PRESSURE) mean= -1.66796781969840E+00
DEBUG_STATS_RL:    cg2d_x (SOLVE_FOR_PRESSURE) S.D.=  6.34452326461851E+00
(PID.TID 0000.0001)      cg2d_init_res =   3.89931111743260E-01
(PID.TID 0000.0001)      cg2d_iters(min,last) =      -1     130
(PID.TID 0000.0001)      cg2d_last_res =   9.87399578918535E-14
(PID.TID 0000.0001) // =======================================================
(PID.TID 0000.0001) // Begin MONITOR dynamic field statistics
(PID.TID 0000.0001) // =======================================================
(PID.TID 0000.0001) %MON time_tsnumber                =                    40
(PID.TID 0000.0001) %MON time_secondsf                =   3.4560000000000E+06
(PID.TID 0000.0001) %MON dynstat_eta_max              =   8.3429487121397E-01
(PID.TID 0000.0001) %MON dynstat_eta_min              =  -1.6040113156490E+00
(PID.TID 0000.0001) %MON dynstat_eta_mean             =  -3.0010293481419E-03
(PID.TID 0000.0001) %MON dynstat_eta_sd               =   5.5892336368570E-01
(PID.TID 0000.0001) %MON dynstat_eta_del2             =   2.1525119904613E-03
(PID.TID 0000.0001) %MON dynstat_uvel_max             =   1.4599968333126E-01
(PID.TID 0000.0001) %MON dynstat_uvel_min             =  -1.4546430271607E-01
(PID.TID 0000.0001) %MON dynstat_uvel_mean            =   1.3889955028308E-03
(PID.TID 0000.0001) %MON dynstat_uvel_sd              =   1.3126811757820E-02
(PID.TID 0000.0001) %MON dynstat_uvel_del2            =   8.2317354633583E-05
(PID.TID 0000.0001) %MON dynstat_vvel_max             =   1.0553871185940E-01
(PID.TID 0000.0001) %MON dynstat_vvel_min             =  -1.1166349850073E-01
(PID.TID 0000.0001) %MON dynstat_vvel_mean            =   4.2643279340986E-05
(PID.TID 0000.0001) %MON dynstat_vvel_sd              =   8.7972788419917E-03
(PID.TID 0000.0001) %MON dynstat_vvel_del2            =   7.5583664756224E-05
(PID.TID 0000.0001) %MON dynstat_wvel_max             =   8.9391101313240E-05
(PID.TID 0000.0001) %MON dynstat_wvel_min             =  -1.1976225218996E-04
(PID.TID 0000.0001) %MON dynstat_wvel_mean            =   3.8265668446166E-22
(PID.TID 0000.0001) %MON dynstat_wvel_sd              =   1.3642094430811E-05
(PID.TID 0000.0001) %MON dynstat_wvel_del2            =   1.4252358905147E-07
(PID.TID 0000.0001) %MON dynstat_theta_max            =   3.0185224237686E+01
(PID.TID 0000.0001) %MON dynstat_theta_min            =  -1.9983819929961E+00
(PID.TID 0000.0001) %MON dynstat_theta_mean           =   3.6219751383061E+00
(PID.TID 0000.0001) %MON dynstat_theta_sd             =   4.4192659950248E+00
(PID.TID 0000.0001) %MON dynstat_theta_del2           =   4.7370645476008E-03
(PID.TID 0000.0001) %MON dynstat_salt_max             =   3.7454924256680E+01
(PID.TID 0000.0001) %MON dynstat_salt_min             =   2.9825999393393E+01
(PID.TID 0000.0001) %MON dynstat_salt_mean            =   3.4717979572624E+01
(PID.TID 0000.0001) %MON dynstat_salt_sd              =   2.9630979004895E-01
(PID.TID 0000.0001) %MON dynstat_salt_del2            =   9.8521442548459E-04
(PID.TID 0000.0001) %MON dynstat_sst_max              =   3.0185224237686E+01
(PID.TID 0000.0001) %MON dynstat_sst_min              =  -1.9983819929961E+00
(PID.TID 0000.0001) %MON dynstat_sst_mean             =   1.8836194012468E+01
(PID.TID 0000.0001) %MON dynstat_sst_sd               =   9.0154740306432E+00
(PID.TID 0000.0001) %MON dynstat_sst_del2             =   2.6860378808076E-02
(PID.TID 0000.0001) %MON dynstat_sss_max              =   3.7429363858376E+01
(PID.TID 0000.0001) %MON dynstat_sss_min              =   2.9825999393393E+01
(PID.TID 0000.0001) %MON dynstat_sss_mean             =   3.4844036930080E+01
(PID.TID 0000.0001) %MON dynstat_sss_sd               =   9.7666950079146E-01
(PID.TID 0000.0001) %MON dynstat_sss_del2             =   7.8435851689720E-03
(PID.TID 0000.0001) %MON forcing_qnet_max             =   3.6657749633789E+02
(PID.TID 0000.0001) %MON forcing_qnet_min             =  -1.7427108459473E+02
(PID.TID 0000.0001) %MON forcing_qnet_mean            =  -1.4474705983364E+01
(PID.TID 0000.0001) %MON forcing_qnet_sd              =   8.5215174338696E+01
(PID.TID 0000.0001) %MON forcing_qnet_del2            =   9.5536523035188E-01
(PID.TID 0000.0001) %MON forcing_qsw_max              =   0.0000000000000E+00
(PID.TID 0000.0001) %MON forcing_qsw_min              =   0.0000000000000E+00
(PID.TID 0000.0001) %MON forcing_qsw_mean             =   0.0000000000000E+00
(PID.TID 0000.0001) %MON forcing_qsw_sd               =   0.0000000000000E+00
(PID.TID 0000.0001) %MON forcing_qsw_del2             =   0.0000000000000E+00
(PID.TID 0000.0001) %MON forcing_empmr_max            =   7.4636085400925E-05
(PID.TID 0000.0001) %MON forcing_empmr_min            =  -7.8067418485261E-05
(PID.TID 0000.0001) %MON forcing_empmr_mean           =   9.3931459634963E-07
(PID.TID 0000.0001) %MON forcing_empmr_sd             =   2.8013374744488E-05
(PID.TID 0000.0001) %MON forcing_empmr_del2           =   3.5400124581310E-07
(PID.TID 0000.0001) %MON forcing_fu_max               =   2.9631257653236E-01
(PID.TID 0000.0001) %MON forcing_fu_min               =  -2.0577280819416E-01
(PID.TID 0000.0001) %MON forcing_fu_mean              =   1.7304940323822E-02
(PID.TID 0000.0001) %MON forcing_fu_sd                =   9.1389471133942E-02
(PID.TID 0000.0001) %MON forcing_fu_del2              =   7.0083075453383E-04
(PID.TID 0000.0001) %MON forcing_fv_max               =   1.8891317546368E-01
(PID.TID 0000.0001) %MON forcing_fv_min               =  -1.8064786195755E-01
(PID.TID 0000.0001) %MON forcing_fv_mean              =  -6.8251595006693E-03
(PID.TID 0000.0001) %MON forcing_fv_sd                =   4.4564502921920E-02
(PID.TID 0000.0001) %MON forcing_fv_del2              =   4.9975827974748E-04
(PID.TID 0000.0001) %MON trAdv_CFL_u_max              =   4.6449421090232E-02
(PID.TID 0000.0001) %MON trAdv_CFL_v_max              =   2.1971019131100E-02
(PID.TID 0000.0001) %MON trAdv_CFL_w_max              =   2.9340331976611E-02
(PID.TID 0000.0001) %MON advcfl_uvel_max              =   4.8258095634805E-02
(PID.TID 0000.0001) %MON advcfl_vvel_max              =   2.1694426891484E-02
(PID.TID 0000.0001) %MON advcfl_wvel_max              =   3.0947119268415E-02
(PID.TID 0000.0001) %MON advcfl_W_hf_max              =   3.7136543122098E-02
(PID.TID 0000.0001) %MON pe_b_mean                    =   3.9975899860538E-04
(PID.TID 0000.0001) %MON ke_max                       =   1.3489464443885E-02
(PID.TID 0000.0001) %MON ke_mean                      =   1.1390653202261E-04
(PID.TID 0000.0001) %MON ke_vol                       =   1.3226782436723E+18
(PID.TID 0000.0001) %MON vort_r_min                   =  -4.4090957633471E-07
(PID.TID 0000.0001) %MON vort_r_max                   =   4.0709129968684E-07
(PID.TID 0000.0001) %MON vort_a_mean                  =  -2.5274807100989E-05
(PID.TID 0000.0001) %MON vort_a_sd                    =   7.3604535513118E-05
(PID.TID 0000.0001) %MON vort_p_mean                  =  -3.1845655425937E-05
(PID.TID 0000.0001) %MON vort_p_sd                    =   1.3162454321884E-04
(PID.TID 0000.0001) %MON surfExpan_theta_mean         =   1.8424403387829E-07
(PID.TID 0000.0001) %MON surfExpan_salt_mean          =   4.4260692949728E-08
(PID.TID 0000.0001) // =======================================================
(PID.TID 0000.0001) // End MONITOR dynamic field statistics
(PID.TID 0000.0001) // =======================================================
(PID.TID 0000.0001) // =======================================================
(PID.TID 0000.0001) // Field Current uVel   at iteration         40
(PID.TID 0000.0001) // CMIN =         -1.454643027160671E-01
(PID.TID 0000.0001) // CMAX =          1.459996833312588E-01
(PID.TID 0000.0001) // CINT =          1.079496244619725E-02
(PID.TID 0000.0001) // SYMBOLS (CMIN->CMAX): -abcdefghijklmnopqrstuvwxyz+
(PID.TID 0000.0001) //                  0.0: .
(PID.TID 0000.0001) // RANGE I (Lo:Hi:Step):(     1:    90:     1)
(PID.TID 0000.0001) // RANGE J (Lo:Hi:Step):(    40:     1:    -1)
(PID.TID 0000.0001) // RANGE K (Lo:Hi:Step):(   1:   1:   1)
(PID.TID 0000.0001) // =======================================================
(PID.TID 0000.0001) K =   1
(PID.TID 0000.0001)                I=10      I=20      I=30      I=40      I=50      I=60      I=70      I=80      I=90
(PID.TID 0000.0001) |--J--|123456789|123456789|123456789|123456789|123456789|123456789|123456789|123456789|123456789|
(PID.TID 0000.0001)     40 mmnmm..mmmmnnnnnnnn...................................................................mllm
(PID.TID 0000.0001)     39 nooonnnnnnnnnn....n......................................................mmm.........lkklm
(PID.TID 0000.0001)     38 oppponnnnnnnn............................................................mmmm.......lkllnn
(PID.TID 0000.0001)     37 ppo...................................................................n....ll....lmlm..opp
(PID.TID 0000.0001)     36 qp..........................................llm.....................mmmmmmmkjl..lmmnppqqrr
(PID.TID 0000.0001)     35 po..................................mlm...mllklm....mmmn............nn.....nmmmmmopqrrrsrp
(PID.TID 0000.0001)     34 ....................................mml..mmmlllm..nmmnnnn...................oppqrssstttq..
(PID.TID 0000.0001)     33 .....................................mnmlmnnnnooooopqqqponm..................prsuvvuutrpn.
(PID.TID 0000.0001)     32 .....................................mnnnoopqqppqppqqqqppoo.................qrsrsttsrqppn.
(PID.TID 0000.0001)     31 .....................................mnoooopppppppppppooopp...............psvtsrrrrqpooo..
(PID.TID 0000.0001)     30 ....................................poooooppoonooooonnnnnoo.............qppppppppppoonno..
(PID.TID 0000.0001)     29 ..................................nopoooonnnnnmmnnnnmmnnnnnn............qponnnnnnoonnnnn..
(PID.TID 0000.0001)     28 ................................noonmmmmmmlmmnmlmmnnnnnonmmmm..........nonnmmmmmmnnnmmnn..
(PID.TID 0000.0001)     27 ...............m...............oponmlmmlmnmmmmmmnnnoooooonmlll....mmn..poooonmmnonnnmm....
(PID.TID 0000.0001)     26 ...............mm............lnnomkkkkllmnmmmllmnnmnnnnmmlkkklmm..mnppopooponnnnnnmllk....
(PID.TID 0000.0001)     25 ...............mlm....mn....kilklifeefhhijiiiiiijkjjiiihggfhjkllm....llljlkkkjijkkihhh....
(PID.TID 0000.0001)     24 .............jkjjjl..lll....ij..jca--abbcdcddddeghgfeedcacceghijjjkl..ihhhfggfefggfefg....
(PID.TID 0000.0001)     23 .............feefhi..hhi....ik...ebaa-abbabcddfhiiiihiiihhghhhihgghij.....hfhfdfggghhj....
(PID.TID 0000.0001)     22 m............dbccdfiffgi....k..lfiigfeefeeefhiikkklllmoonljkkkmljjkjkl.......jgefgilmmoopn
(PID.TID 0000.0001)     21 lml.........igfeddgiikkon......pmnmljjjjiiijkjkkjjllllnmmlkkkmnnllkjln.........ighjmnmmnpm
(PID.TID 0000.0001)     20 kmk........kkmmmjijlmnnon.........nmmlkllmlmnlllkkljlkkkkkiikmmmjkjiil..........khikkkkmnl
(PID.TID 0000.0001)     19 mmk........lknpqnkjklllkkkl....oo......mmopopononnmklkkkjiggiihhghihhj............ihijlljj
(PID.TID 0000.0001)     18 jkk........lehigfdfhhighijkmoopoo....opnooppppppooonmlkkjigffedeefghghk...........jhijkjhh
(PID.TID 0000.0001)     17 fgj..........ifcacfghhiiijlnopp......opoooonnnonnnooomlkkjhgfeeeeeghgfh..........nlihhgfee
(PID.TID 0000.0001)     16 deg.......p..mkihkklmkmmllmnnn........noppooooooppppponmmkjjihhhhhiihghk.........pmkigeeee
(PID.TID 0000.0001)     15 gfgj.....mn..onnnonqqppponmmn..........mopppqppqrrrrqqpoonnmlkkkjkkjjihil.......opnmmkihgh
(PID.TID 0000.0001)     14 jiii.....omlmoooppnpomooonmlm..........nnoopqqpqqrssrqqppppnmmmlllllkkijk......nponnmlkjjj
(PID.TID 0000.0001)     13 kkkj.....mmmlmmnnnnnmlmmmmmll..........nnnoooooppqqqppppoponnonllmmmmlkll.....noonnmmmlllk
(PID.TID 0000.0001)     12 lmmkllkmmmmmlkkllmmmllmmmmlllmnnmm.....nnnnnnnnnnoonnnoonnnnnomlmnnmmmml......oonnonnnnmml
(PID.TID 0000.0001)     11 ooomlkmopppppooonoooooooonnnnnnonnn...onnnn..onnnnmmmnmmmnnnnnmmnoonnnnm.....noppppppppoon
(PID.TID 0000.0001)     10 rrrqqrtuuuvwvuvvuuuusrrrrrrqqqqpponn..ooonm..pponmmmnonmnnnopooopqqppoon...onpqqrrsssttssr
(PID.TID 0000.0001)      9 vvvvwwxwwxxxxwyzxwwwvvvvvvuuutsssrrrqpqqqp..pppppppppppppqqrrqqrrsrrqqpm..nnpsttuuuvvvwxww
(PID.TID 0000.0001)      8 wxxyyyxwwwwwwwwwutuuwxxwwwwwvvvwwwyzywwvusrqqrrstuvvvuuuuvvuutsttsssssro..pqrtuvuuvuuvwwww
(PID.TID 0000.0001)      7 uvvvutsttutuuuuttssstuuuuutttuvwxyy++zzyyxwuttuuwxyyzzyxxwvuuuuuuuuuuuuutstttuuutssssssttt
(PID.TID 0000.0001)      6 qqqppppqrrrrrrrrrrrqppqqrrrrrsttuvvuuuvvwxxwvvvvwwwwwwwwvuttttuuuvvvvvwwxwwxxwvusrqqqqqqqq
(PID.TID 0000.0001)      5 nnnnnooooopooooppppoonooooopppqqqqqqqqrstuwwvuuuuttssrqrrssstttttuuuuvvvvutsssrqqppooooonn
(PID.TID 0000.0001)      4 llllmmnnnnnnnnnnnnnnnnnmmmmnnnnnnnnnooooopqrrrrqpppoonnoopqrrrrrrrrrrrrqpo...nnnnnnnnnmmml
(PID.TID 0000.0001)      3 mmllmmmmmm.............................mmmnnnoonnmmmmmmmnnoooooooooonnnnn...mmnmmmmmmmmmmm
(PID.TID 0000.0001)      2 ...........................................mmnnnnmmmmmmmmmmmnnmm...mmm......nnnnmmmmmmm...
(PID.TID 0000.0001)      1 ..........................................................................................
(PID.TID 0000.0001) // =======================================================
(PID.TID 0000.0001) // END OF FIELD                                          =
(PID.TID 0000.0001) // =======================================================
(PID.TID 0000.0001) 
(PID.TID 0000.0001) // =======================================================
(PID.TID 0000.0001) // Field Current vVel   at iteration         40
(PID.TID 0000.0001) // CMIN =         -1.116634985007271E-01
(PID.TID 0000.0001) // CMAX =          1.055387118593988E-01
(PID.TID 0000.0001) // CINT =          8.044526309634294E-03
(PID.TID 0000.0001) // SYMBOLS (CMIN->CMAX): -abcdefghijklmnopqrstuvwxyz+
(PID.TID 0000.0001) //                  0.0: .
(PID.TID 0000.0001) // RANGE I (Lo:Hi:Step):(     1:    90:     1)
(PID.TID 0000.0001) // RANGE J (Lo:Hi:Step):(    40:     1:    -1)
(PID.TID 0000.0001) // RANGE K (Lo:Hi:Step):(   1:   1:   1)
(PID.TID 0000.0001) // =======================================================
(PID.TID 0000.0001) K =   1
(PID.TID 0000.0001)                I=10      I=20      I=30      I=40      I=50      I=60      I=70      I=80      I=90
(PID.TID 0000.0001) |--J--|123456789|123456789|123456789|123456789|123456789|123456789|123456789|123456789|123456789|
(PID.TID 0000.0001)     40 mnqrp.mmnnnnnn...nn..................................................................mmmmm
(PID.TID 0000.0001)     39 nnoonmmmmmnoo...........................................................nmmn........kmmnnn
(PID.TID 0000.0001)     38 noo.......................................................................mmn......mk.nonn
(PID.TID 0000.0001)     37 np...................................................................nn...mmm...kmqqo.nnmm
(PID.TID 0000.0001)     36 oo.........................................qrrp....................mmn....kjjl.jjnpppnmnnm
(PID.TID 0000.0001)     35 ...................................mmnn..oqqrrqo...mmprq...................ihhjklnpppopq..
(PID.TID 0000.0001)     34 ....................................lll.nooopqqp.nnopqrrp...................jgjlmoqrqoqo..
(PID.TID 0000.0001)     33 ....................................mkklmnnopqqpqqqqrsrqppo.................plmpopqqonmmo.
(PID.TID 0000.0001)     32 ....................................nlllnooppqppqqqrssrqonn................sqmopononmllm..
(PID.TID 0000.0001)     31 ....................................oonnnoonnnnnooopqqqpnmm..............pssppoonnnnnmnn..
(PID.TID 0000.0001)     30 ...................................pqonmmmmkkjkkkklmmnnmmml............surromllllmmmmmno..
(PID.TID 0000.0001)     29 .................................nnmlkiiiihgfghhhhhijkkklmlm...........oomljjjlmnnmmmnon..
(PID.TID 0000.0001)     28 ...............................ponmkihggggfffggfghhhijkkmmmmm.........nlkkjjkklmnnmmmn....
(PID.TID 0000.0001)     27 ..............nn..............srqpponmkjjihijjijkllllmmnooonmm...noqp.onmmmnonoqrqqqpo....
(PID.TID 0000.0001)     26 ..............pqr...........qvxywwvutttsrpoooooqqrqqrrsstsrqpnmn....rrqoooqrrrtuuuutro....
(PID.TID 0000.0001)     25 ..............rtvs...qnm...ors.+zzzxwxzzxvvuuuuvvwvuvwwwxwutsqomm....svvsstuuvxxwvtttu....
(PID.TID 0000.0001)     24 ............nqtuurl.npml...oqn..osvwwxyzzzwwvvuuvwwuuvvuvwwvutrpppqq.....orutvyywusrtw....
(PID.TID 0000.0001)     23 ............mpsttql.hjkl...kq...-hlmnoqstrpqppopqrrrststuvutsrpnnpqrp.......nquwvttsrr....
(PID.TID 0000.0001)     22 q...........jlnppnkjggkm......nibdfghijlkjkjjlmoqstttuvwwvtspmllmnooml........rqqrsssqonnp
(PID.TID 0000.0001)     21 lkj........klmkhggijiknrp......m.kkllmpomllmnoqqsstvvvxyywvuspppponooo.........mnrttutrpom
(PID.TID 0000.0001)     20 iij.......oostrlhhlopqrsq......m......srqpopqqqrrqqsuuvvwvvvvvuutsqppn...........vutsrqqrn
(PID.TID 0000.0001)     19 ihk.......pqxyzvpmmpqqqomlm...mmm.....rspooooononnnoqrrrqoprsssrpoopqo...........rppppoool
(PID.TID 0000.0001)     18 llm.......q.ywurnjghjmlkjkllnon.....lmnmmmlkkkjkllkknoomkjlmnnnnkjjnrqp..........nmlmonmmm
(PID.TID 0000.0001)     17 mnn.......r.npnkiecdeikihiklno.......nmlllljjiiijjjlmnlkiijkkklljhjlppn.........mlmlmonklm
(PID.TID 0000.0001)     16 jkl......po.monmlklmlijjjjkkn.........mmmmlklmlklllmnnmkkjjkklmmkijklmmm........mnmkklkjjj
(PID.TID 0000.0001)     15 kjjl....mmm.mnonnmknnmlmllkkm.........mmnnnnopoooooopponnnooooonmkklllmmm......mnpommnnmlk
(PID.TID 0000.0001)     14 mmll....mnomlnoppomnomlmmmkjk.........nmnoooopppooppooppoopnoqpoonmnmlmnn.....mmoqqooonoon
(PID.TID 0000.0001)     13 oooo....lnpomnoooppponnnonmmm.........nmnnonnnooooopoopoooomnpoooonnoooo.....nlmnoqooonnoo
(PID.TID 0000.0001)     12 nnoopligfhlmllnonnnonmmnnnnnmmnnnn....mmmmn.mmmnnnmmnnoonnnnnnmnponnnopo.....kmmmmommnmmnn
(PID.TID 0000.0001)     11 mmmlihhgedfhfeikjjjjkkkllmmnmmnmmnn..llmmlm.lklmnnmmmnnoonmnnlkmppommnon....hjnmkklkkkkkmm
(PID.TID 0000.0001)     10 mmmnlkkjihikifgijjhhilmlllmnmmmmmmpq.llmml..mkllmnnnnmlmopponmlmpqqoooom..pnhkoonllkjkkjkm
(PID.TID 0000.0001)      9 mmnnonmlmllnponmptokkmoponmnmlllkjmpnlmmmm.qolkllmmmmmlmnoqponmorsrqqpll.mqpnnprqommlmonlm
(PID.TID 0000.0001)      8 ooooppooponoqqrpqwwqoopqqpponmmmllmnljkkklqspnnoponmmmmooopponnorrrqqpll.qrststvurpnnprqpo
(PID.TID 0000.0001)      7 qppoopppppppqppqquxvsppqppooooooooqpljjiilprrqqssrpomkkmnnopoonopqqqqqqqssrtuutttsqooprrqq
(PID.TID 0000.0001)      6 ponmnnoppooooonoprssqpppnmlmnooonnopomljiknqqrsttssrpmkkklnqponopqqqpqrstutrqqrqpppoooqqpp
(PID.TID 0000.0001)      5 nmllllmmnmllmlmmnooonnmlllklmmmlllmmnnmllmnooprsrqqpomlkllnpponnoppppqqqpp..oooooonnnnonnn
(PID.TID 0000.0001)      4 lkjkkkjkkl............................mmmmnmmnoppoonmllmnnooonnnnnoooonmm...nnnmmmmmnmmmll
(PID.TID 0000.0001)      3 ..........................................mmmmmmmmmlkklmnoonmmlm..nmmm.....nnnmmlmmmmmm...
(PID.TID 0000.0001)      2 ..........................................................................................
(PID.TID 0000.0001)      1 ..........................................................................................
(PID.TID 0000.0001) // =======================================================
(PID.TID 0000.0001) // END OF FIELD                                          =
(PID.TID 0000.0001) // =======================================================
(PID.TID 0000.0001) 
(PID.TID 0000.0001) // =======================================================
(PID.TID 0000.0001) // Field Current theta  at iteration         40
(PID.TID 0000.0001) // CMIN =         -1.998381992996051E+00
(PID.TID 0000.0001) // CMAX =          3.018522423768608E+01
(PID.TID 0000.0001) // CINT =          1.191985415951190E+00
(PID.TID 0000.0001) // SYMBOLS (CMIN->CMAX): -abcdefghijklmnopqrstuvwxyz+
(PID.TID 0000.0001) //                  0.0: .
(PID.TID 0000.0001) // RANGE I (Lo:Hi:Step):(     1:    90:     1)
(PID.TID 0000.0001) // RANGE J (Lo:Hi:Step):(    40:     1:    -1)
(PID.TID 0000.0001) // RANGE K (Lo:Hi:Step):(   1:   1:   1)
(PID.TID 0000.0001) // =======================================================
(PID.TID 0000.0001) K =   1
(PID.TID 0000.0001)                I=10      I=20      I=30      I=40      I=50      I=60      I=70      I=80      I=90
(PID.TID 0000.0001) |--J--|123456789|123456789|123456789|123456789|123456789|123456789|123456789|123456789|123456789|
(PID.TID 0000.0001)     40 -bbccbaa------acdddbbbbbbbbbbbbbbbbbbbbbbbbbbbbbbbbbbbbbbbbbbbbbbbbbbbbbbbbbbbbbbbbbbaaaa-
(PID.TID 0000.0001)     39 bccddccbba----bbbddbbbbbbbbbbbbbbbbbbbbbbbbbbbbbbbbbbbbbbbbbbbbbbbbbbbbb----bbbbbbbbbaaaab
(PID.TID 0000.0001)     38 eeffeeccccbaabbbbbbbbbbbbbbbbbbbbbbbbbbbbbbbbbbbbbbbbbbbbbbbbbbbbbbbbbbb-----bbbbbbba--bcd
(PID.TID 0000.0001)     37 fggbbbbbbbbbbbbbbbbbbbbbbbbbbbbbbbbbbbbbbbbbbbbbbbbbbbbbbbbbbbbbbbbbbbbbbbaabbbbdbccebddee
(PID.TID 0000.0001)     36 hgbbbbbbbbbbbbbbbbbbbbbbbbbbbbbbbbbbbbbbbbbcb--bbbbbbbbbbbbbbbbbbbbccccbabacbdbdefgghhhhhg
(PID.TID 0000.0001)     35 ggbbbbbbbbbbbbbbbbbbbbbbbbbbbbbbbbba---bbbbcccbabbbeeeefbbbbbbbbbbbbbbbbbbbcdeeeefghiiiihg
(PID.TID 0000.0001)     34 bbbbbbbbbbbbbbbbbbbbbbbbbbbbbbbbbbb----bbcddddddbdddeefggbbbbbbbbbbbbbbbbbbcabdefghiijjjbb
(PID.TID 0000.0001)     33 bbbbbbbbbbbbbbbbbbbbbbbbbbbbbbbbbbbb--bbcccddddeeeeefffgggibbbbbbbbbbbbbbbbbaadhiijkkkkkjb
(PID.TID 0000.0001)     32 bbbbbbbbbbbbbbbbbbbbbbbbbbbbbbbbbbbb-acccdeeeeefggggghhhhiibbbbbbbbbbbbbbbbcbbdjlllllllkkb
(PID.TID 0000.0001)     31 bbbbbbbbbbbbbbbbbbbbbbbbbbbbbbbbbbbbdefggghhiiiiiiiijjkkkkkbbbbbbbbbbbbbbfjkjikmnnnnmmlmbb
(PID.TID 0000.0001)     30 bbbbbbbbbbbbbbbbbbbbbbbbbbbbbbbbbbblkkkkkklllllllllllmmmmllbbbbbbbbbbbbmnoppppppppooonnnbb
(PID.TID 0000.0001)     29 bbbbbbbbbbbbbbbbbbbbbbbbbbbbbbbbboooooonnnnnnnnnnnnnooooonmmbbbbbbbbbbbqqqqqqqqqqqqpppoobb
(PID.TID 0000.0001)     28 bbbbbbbbbbbbbbbbbbbbbbbbbbbbbbbnpqqqqqppqqqqqqqqqqqqqqqqqponnbbbbbbbbbssrrrrsrrrrrqqqqppbb
(PID.TID 0000.0001)     27 bbbbbbbbbbbbbbuvbbbbbbbbbbbbbbrrssrssssssssssssssssssssrrqqppqbbbssstbttttttttttsssrrrbbbb
(PID.TID 0000.0001)     26 bbbbbbbbbbbbbbvuubbbbbbbbbbbttuuutuuuuuuvvuuuuuuuuuuttsssrrrrrsubttuvvvvvvvvuuuuttssrqbbbb
(PID.TID 0000.0001)     25 bbbbbbbbbbbbbbuuvwbbbwvwbbbuuvvwvvwwwwwwwwwvvvvvvvvuuuutttssttuvwbbbwwwwvvvvvvuuutsrqpbbbb
(PID.TID 0000.0001)     24 bbbbbbbbbbbbvvvvxyybwwwxbbbwwwbxxxxxxxxwwwwwwwwwwvvvvvvvuuuvvvwwwvvvbwwwwvvvvvvuuuttsrbbbb
(PID.TID 0000.0001)     23 bbbbbbbbbbbbwwwxxyybxxxxbbbxwwbbxxyyyxxxxxxxxxxwxwwxxxxxxwwxxwwwwwwxwbbbbwwwwwwwvvvvvubbbb
(PID.TID 0000.0001)     22 wbbbbbbbbbbbxwxxyyyyxxyybbbxxbyyyzyyzyyyyyyyyyyyxxxxxxxwwwwwxwwwwwwwwwbbbbbbxxxxwxxxxyxxww
(PID.TID 0000.0001)     21 wwwbbbbbbbbxxxxxyyyyyzz++bbbbbyyzzzzzzz+zzzzyyyyyyyyyyxxwwwwxwwwwwvvvvbbbbbbbbyxxyyyyyyxxx
(PID.TID 0000.0001)     20 xwwbbbbbbbyxyyyyyzzzzzzz+bbbbbbzbzzzzz++++zzzzzzzyyzyyxxxxxxxxwwwwwwvvbbbbbbbbbyyyyyyyyxxx
(PID.TID 0000.0001)     19 wvvbbbbbbbyzzzyzzyzzzzzzzzybbbzzzbbbbb++++++zzzzzzzzyyyyxxxxxxwwwwwwvvbbbbbbbbbbbyyxxxwwwx
(PID.TID 0000.0001)     18 vutbbbbbbbzzzyyyyyyyyyyyzzzyzz+zzbbb+++++++zzz+z+zzzzzyyyyyxxwwwvvwvvvubbbbbbbbbbyyxxwwwww
(PID.TID 0000.0001)     17 uutbbbbbbbzbyyxxxxxyyyyxyyyyyzzbbbbbzzzzzzzzzzzzzzzzzyyyyyyxxwwvuvvuuuvbbbbbbbbbyyyxxwuvvu
(PID.TID 0000.0001)     16 utsbbbbbbzzbyyxxxxxxxxxwwxxxxzbbbbbbbyyyyzyzzyzzzyyyzyyyyyyyxxwwvvvuutttbbbbbbbbyyyyxwvvvu
(PID.TID 0000.0001)     15 ttrrbbbbxyybxxxxxwwwwwwwvvvwxbbbbbbbbbxxxxxxxxxyxyxxyyyyyyyyxwwwwvuuutssrbbbbbbxxyxxyxxwvu
(PID.TID 0000.0001)     14 utrqbbbbxyxwwxwwwxwwvuuuuuuuubbbbbbbbbwwwwwwwwwwwxxxxxxwxxxxxwwwvvvutssssbbbbbwwxxxxxxwwvu
(PID.TID 0000.0001)     13 uutrbbbbwxwwwwvuuvvvvuuttttttbbbbbbbbbvvvvvvvvvvvvuuvvvvvwwxxwvvvuuuutssqbbbbvwwwwwwwwwvvu
(PID.TID 0000.0001)     12 tstsssstuvuttutssssstutrrssssqqrrqbbbbuuuutttttsssssssssstuuuttttsttssrqbbbbbuvvvutuuutttt
(PID.TID 0000.0001)     11 qppqrrssrrrrrsrqqpppprqppqpppqqqqqqbbtttsssbrrrqqrrrrrrrqrrrqqqrrqrrrrqpbbbbprttsrrrrrqqqq
(PID.TID 0000.0001)     10 mmlmnoopooooooonnnnnnnnmmmmmmnnooopobqrrqqqbpqqqqqqppppppppooooppooopppobbooppppoooooooonm
(PID.TID 0000.0001)      9 jjiijjjjjjkkjjjjjijjjjiiijjjijkllnnmmnooopbnnoooooooooooonnmmmmnmmlmmmmmbmnnnnmmllkjklkjjj
(PID.TID 0000.0001)      8 ggggggggggghiihhggghhiggghhhhijjjjkkkklmmmmllllllllmmmllllkkjjklkkkkkklkblllkkjjiihhhhgfff
(PID.TID 0000.0001)      7 ddeeeeffffffggfffffffeeeffggggghhhhhiiijkkkjjkkkkjjiiiiiijiiiiiiiiiijjjjijjjiihgffffeeeeee
(PID.TID 0000.0001)      6 ccddeeeeeeeeeeeeeeeeeeefeeeedeffffffggghhiiihhiiiggfffffgggggffghhhhhhihhhhhggffeddddddddc
(PID.TID 0000.0001)      5 ddddddddddeeeeeeeeeeeeeedddeeeeeeeeeeeeffffffffffeddddddeeeeeeeffffffffffffeeedddccccccccc
(PID.TID 0000.0001)      4 ddddddccccccccccccdccccbbbbccccccccccccdddddddcccdccccccccccdddddddddddddcbbbabbcccccccccd
(PID.TID 0000.0001)      3 ccccbbaaaabbbbbbbbbbbbbbbbbbbbbbbbbbbbbbbbbcccbbccccccbbbbbbbbbbbbbbbbbbbbbbbaaabbcccccbbb
(PID.TID 0000.0001)      2 bbbbbbbbbbbbbbbbbbbbbbbbbbbbbbbbbbbbbbbbbbbccccbbbbbbaaaaaaaaababbaaaabbbbbaaaaabbbbbbbbbb
(PID.TID 0000.0001)      1 bbbbbbbbbbbbbbbbbbbbbbbbbbbbbbbbbbbbbbbbbbbbbbbbbbbbbbbbbbbbbbbbbbbbbbbbbbbbbbbbbbbbbbbbbb
(PID.TID 0000.0001) // =======================================================
(PID.TID 0000.0001) // END OF FIELD                                          =
(PID.TID 0000.0001) // =======================================================
(PID.TID 0000.0001) 
(PID.TID 0000.0001) // =======================================================
(PID.TID 0000.0001) // Field Current etaN   at iteration         40
(PID.TID 0000.0001) // CMIN =         -1.604011315649000E+00
(PID.TID 0000.0001) // CMAX =          8.342948712139669E-01
(PID.TID 0000.0001) // CINT =          9.030763655048026E-02
(PID.TID 0000.0001) // SYMBOLS (CMIN->CMAX): -abcdefghijklmnopqrstuvwxyz+
(PID.TID 0000.0001) //                  0.0: .
(PID.TID 0000.0001) // RANGE I (Lo:Hi:Step):(    -1:    92:     1)
(PID.TID 0000.0001) // RANGE J (Lo:Hi:Step):(    42:    -1:    -1)
(PID.TID 0000.0001) // RANGE K (Lo:Hi:Step):(   1:   1:   1)
(PID.TID 0000.0001) // =======================================================
(PID.TID 0000.0001) K =   1
(PID.TID 0000.0001)                I=8       I=18      I=28      I=38      I=48      I=58      I=68      I=78      I=88
(PID.TID 0000.0001) |--J--|101234567|901234567|901234567|901234567|901234567|901234567|901234567|901234567|901234567|9012
(PID.TID 0000.0001)     42 ............................................---aaaaaabbbccbbbaaaab..cbbb.....-aaaaaaaaaaa.....
(PID.TID 0000.0001)     41 ..............................................................................................
(PID.TID 0000.0001)     40 jjjiijk.kkkklllllllll..................................................................kkjjjji
(PID.TID 0000.0001)     39 jjjiijkkkkkkkkkl...kk.....................................................jjii........kkkjjjji
(PID.TID 0000.0001)     38 jjkkkllkkkkkkkl...........................................................jjjjj......lkjjjjjkk
(PID.TID 0000.0001)     37 jkkkl..................................................................kl...jji...jjijj.ijjkkk
(PID.TID 0000.0001)     36 kklm.........................................oooo....................lllllkjiiji.kihijjkkkkklm
(PID.TID 0000.0001)     35 mmmm.................................nnnn..nnnooon...qpppq...........lll....jhhhhhghhijkklmmmm
(PID.TID 0000.0001)     34 .....................................onnn.ooonnooo.poooooqr..................kjihhhhijkllp....
(PID.TID 0000.0001)     33 l.....................................oonnnoonnoooooooooppqqr.................kjijjjklmmmml...
(PID.TID 0000.0001)     32 m.....................................ooonnoooooppppppppqqqqr................fjkklmmmnnnmmm...
(PID.TID 0000.0001)     31 ......................................oooooopppqqqqqqqqrrrsrr..............mmnnnmnnnnnnnnm....
(PID.TID 0000.0001)     30 .....................................qqrrqqqrrrrrrrssrsssttss............lnopqqqqqpppooonn....
(PID.TID 0000.0001)     29 ...................................tuuvvvuuuuuttttttttttttttsr...........prrssssrrqqqppooo....
(PID.TID 0000.0001)     28 .................................vwwxxxxxwwwwwvvvvuuuuuuuutttsr.........sssssssrrrrqqppoop....
(PID.TID 0000.0001)     27 ................ss..............yxyyyyyyyxxxxxwwwvvvvvuuuuuttssr...tsst.ttttsssrqqqqpppo......
(PID.TID 0000.0001)     26 ................sss...........zyzzyyyyyyyyyyxxxwwwwwwvvvuutttsssst.tttuvuuutttssrrqqqppo......
(PID.TID 0000.0001)     25 ................tttu...vvv...zyyyzzyyxxxxyyxxxxwwwwvvvvvuutttsssttt...uvvuuuttssrrqqqppo......
(PID.TID 0000.0001)     24 ..............tttttuv.vvvv...zzy.+zyxxxxxxxxxxwwwvvvvvuuuutttttttttttt.vuuutttssrrqqqppp......
(PID.TID 0000.0001)     23 ..............tuttuuv.vvvv...zzy..zyxxxxxxxxxxwwwwwwwvvvuuutttttttttttt....ttttssrrrqqrq......
(PID.TID 0000.0001)     22 rrr...........ttttuuuuvvvv...zz.xxyyyxyyyyyxxxxxxxwwwwvvvuuttttttttttttu......ttssrrrrrsrrrrr.
(PID.TID 0000.0001)     21 rrrrr........utttuuuuvvvwww.....xxxxxxxxxyyxxxxxwwwvwwvvvuuuutttttttsttu........tssssrrrrrrrrr
(PID.TID 0000.0001)     20 rrrrr.......vuuuuuuvvvwwwww......x.wwwwxxxxxxxxxwwwwwwvwvvvuuuuuttttsstu.........sssssrrrrrrrr
(PID.TID 0000.0001)     19 rrrqq.......vvwvvvvvwvwwwwwww...xxx.....yxyxxxxxxxxxxxwwwvvvvuuuuttttstt...........tsssrrrrrrq
(PID.TID 0000.0001)     18 qqqqq.......vwwwvvvvwwwwvvvvvwwxxxx...yyyxxxxxxxxxxxxxwwwwvvvuuuttttsssss..........utssrrqqqqq
(PID.TID 0000.0001)     17 qqqpp.......w.ywwvvvvvvwwvvvwwwww.....yyxxxxxxxxxxxxxxwwwwvvvvvuutttttsst.........uutssrrqqqqp
(PID.TID 0000.0001)     16 rqqqp......yx.zxxwwwxwvvwvvvvvvw.......yxxxxxxxxxxxxxxxwwwwwwvvvuutttttssr........uutttsrrrqqq
(PID.TID 0000.0001)     15 rrrqpp....yxw.yyxxxwyxvvvvvutuv.........wwwwwwxxxxxxxxxxwwxxwwwvvuuutttsrrq......uuuttutssrrrq
(PID.TID 0000.0001)     14 ssrrqp....yywwxxwwwwxwutuuutsss.........wwwvvwwwwvwwwwwwwwxxxwxwvuuuuuttsrr.....uuuuttuuttssrr
(PID.TID 0000.0001)     13 ttssrq....xyyxwwvvvvvutuuvutssr.........uvvvuuuuuuuuutuvvvvwwwxwvvvuuuttsrr....tuuuuttuuuuttss
(PID.TID 0000.0001)     12 ttssrrqptuwxxwwwwvvuuttuuutssssrrrrq....tutttttttttssstttttuuuvuuvvutttssq.....tttttttttttttss
(PID.TID 0000.0001)     11 srrrqrrsttuvwwvwwvuuttstttssrrrrrrrrr..ssssss.rssssrrsssttstttttuuutssssrq....qsrrrrrrrrrssrrr
(PID.TID 0000.0001)     10 pppoooopoppqrrrsssrqqqqqqqqqqpppppqqqq.rrrrrr.qrrrrrrrssstsssssstttsrqqqqq..omprqpoooooopppppo
(PID.TID 0000.0001)      9 llmmmmlkkkkllmllmmllklmmmmmmnnnnoopqrqpqqqqr.pppqrrrrrrrsttssrrrssrqqppppp.qpoooonlkkkklllllmm
(PID.TID 0000.0001)      8 gghhhhhgfggghiiihhjighiiiiiijjjklllmoonooppqrpoooppppqqqqqqqqpppqqqppppops.onmllkjhhgggggggghh
(PID.TID 0000.0001)      7 dddddcddddeeeeefffghfdddeeffffgghhhhhhhijkmnnmmmmmlkklllmnmmmmmnnnonnnnnnoonmmkjihfeddeedddddd
(PID.TID 0000.0001)      6 baaaabbccccccddddeeedccccccddeeeedddddddeghjjjjiiihggfffghijkjjkkkkkkkkkkkjjihgfeddccccccbbaaa
(PID.TID 0000.0001)      5 aa--aabbbbbbbbbbcccccbbbbaabbbbbbbbbbbbbbcdeeeffedddcccccdefggggggggggggffedcbbbaaaaaaaaaaaa--
(PID.TID 0000.0001)      4 aaaaaaaaabbbbbbcbbbbbbbbbbbbbbbababaaaaaaaabbbbbbbaaaaabbccddddddddddddccccd..-aaaaaaaaaaaaaaa
(PID.TID 0000.0001)      3 aaabbbbbbbbb............................aaaaaaaaaaaaaaabbbbbbbbbbbbbbbbbbcc..bbaaaaaaaaaaaaaab
(PID.TID 0000.0001)      2 ............................................---aaaaaabbbccbbbaaaab..cbbb.....-aaaaaaaaaaa.....
(PID.TID 0000.0001)      1 ..............................................................................................
(PID.TID 0000.0001)      0 jjjiijk.kkkklllllllll..................................................................kkjjjji
(PID.TID 0000.0001)     -1 jjjiijkkkkkkkkkl...kk.....................................................jjii........kkkjjjji
(PID.TID 0000.0001) // =======================================================
(PID.TID 0000.0001) // END OF FIELD                                          =
(PID.TID 0000.0001) // =======================================================
(PID.TID 0000.0001) 
(PID.TID 0000.0001)  MDS_WRITE_FIELD: it,rec,kS,kL,kH=      40     1  15   1  15 file=U.0000000040
(PID.TID 0000.0001)  MDS_WRITE_FIELD: it,rec,kS,kL,kH=      40     1  15   1  15 file=V.0000000040
(PID.TID 0000.0001)  MDS_WRITE_FIELD: it,rec,kS,kL,kH=      40     1  15   1  15 file=T.0000000040
(PID.TID 0000.0001)  MDS_WRITE_FIELD: it,rec,kS,kL,kH=      40     1  15   1  15 file=S.0000000040
(PID.TID 0000.0001)  MDS_WRITE_FIELD: it,rec,kS,kL,kH=      40     1   1   1   1 file=Eta.0000000040
(PID.TID 0000.0001)  MDS_WRITE_FIELD: it,rec,kS,kL,kH=      40     1  15   1  15 file=W.0000000040
(PID.TID 0000.0001)  MDS_WRITE_FIELD: it,rec,kS,kL,kH=      40     1  15   1  15 file=PH.0000000040
(PID.TID 0000.0001)  MDS_WRITE_FIELD: it,rec,kS,kL,kH=      40     1   1   1   1 file=PHL.0000000040
(PID.TID 0000.0001)  MDS_WRITE_FIELD: it,rec,kS,kL,kH=      40     1   1   1   1 file=ETAtave.0000000040
(PID.TID 0000.0001)  MDS_WRITE_FIELD: it,rec,kS,kL,kH=      40     1  15   1  15 file=Ttave.0000000040
(PID.TID 0000.0001)  MDS_WRITE_FIELD: it,rec,kS,kL,kH=      40     1  15   1  15 file=Stave.0000000040
(PID.TID 0000.0001)  MDS_WRITE_FIELD: it,rec,kS,kL,kH=      40     1  15   1  15 file=uVeltave.0000000040
(PID.TID 0000.0001)  MDS_WRITE_FIELD: it,rec,kS,kL,kH=      40     1  15   1  15 file=vVeltave.0000000040
(PID.TID 0000.0001)  MDS_WRITE_FIELD: it,rec,kS,kL,kH=      40     1  15   1  15 file=wVeltave.0000000040
(PID.TID 0000.0001)  MDS_WRITE_FIELD: it,rec,kS,kL,kH=      40     1   1   1   1 file=Eta2tave.0000000040
(PID.TID 0000.0001)  MDS_WRITE_FIELD: it,rec,kS,kL,kH=      40     1  15   1  15 file=UTtave.0000000040
(PID.TID 0000.0001)  MDS_WRITE_FIELD: it,rec,kS,kL,kH=      40     1  15   1  15 file=VTtave.0000000040
(PID.TID 0000.0001)  MDS_WRITE_FIELD: it,rec,kS,kL,kH=      40     1  15   1  15 file=WTtave.0000000040
(PID.TID 0000.0001)  MDS_WRITE_FIELD: it,rec,kS,kL,kH=      40     1  15   1  15 file=UStave.0000000040
(PID.TID 0000.0001)  MDS_WRITE_FIELD: it,rec,kS,kL,kH=      40     1  15   1  15 file=VStave.0000000040
(PID.TID 0000.0001)  MDS_WRITE_FIELD: it,rec,kS,kL,kH=      40     1  15   1  15 file=WStave.0000000040
(PID.TID 0000.0001)  MDS_WRITE_FIELD: it,rec,kS,kL,kH=      40     1  15   1  15 file=TTtave.0000000040
(PID.TID 0000.0001)  MDS_WRITE_FIELD: it,rec,kS,kL,kH=      40     1  15   1  15 file=UUtave.0000000040
(PID.TID 0000.0001)  MDS_WRITE_FIELD: it,rec,kS,kL,kH=      40     1  15   1  15 file=VVtave.0000000040
(PID.TID 0000.0001)  MDS_WRITE_FIELD: it,rec,kS,kL,kH=      40     1  15   1  15 file=UVtave.0000000040
(PID.TID 0000.0001)  MDS_WRITE_FIELD: it,rec,kS,kL,kH=      40     1  15   1  15 file=Tdiftave.0000000040
(PID.TID 0000.0001)  MDS_WRITE_FIELD: it,rec,kS,kL,kH=      40     1  15   1  15 file=PhHytave.0000000040
(PID.TID 0000.0001)  MDS_WRITE_FIELD: it,rec,kS,kL,kH=      40     1   1   1   1 file=PHLtave.0000000040
(PID.TID 0000.0001)  MDS_WRITE_FIELD: it,rec,kS,kL,kH=      40     1   1   1   1 file=uFluxtave.0000000040
(PID.TID 0000.0001)  MDS_WRITE_FIELD: it,rec,kS,kL,kH=      40     1   1   1   1 file=vFluxtave.0000000040
(PID.TID 0000.0001)  MDS_WRITE_FIELD: it,rec,kS,kL,kH=      40     1   1   1   1 file=tFluxtave.0000000040
(PID.TID 0000.0001)  MDS_WRITE_FIELD: it,rec,kS,kL,kH=      40     1   1   1   1 file=sFluxtave.0000000040
(PID.TID 0000.0001)  MDS_WRITE_FIELD: it,rec,kS,kL,kH=      40     1   1   1   1 file=PHL2tave.0000000040
(PID.TID 0000.0001)  MDS_WRITE_FIELD: it,rec,kS,kL,kH=      40     1  15   1  15 file=Convtave.0000000040
(PID.TID 0000.0001) // Time-average data written, t-step        40
(PID.TID 0000.0001) 
(PID.TID 0000.0001)  MDS_WRITE_FIELD: it,rec,kS,kL,kH=      40     1  15   1  15 file=GM_Kwx-T.0000000040
(PID.TID 0000.0001)  MDS_WRITE_FIELD: it,rec,kS,kL,kH=      40     1  15   1  15 file=GM_Kwy-T.0000000040
(PID.TID 0000.0001)  MDS_WRITE_FIELD: it,rec,kS,kL,kH=      40     1  15   1  15 file=GM_Kwz-T.0000000040
(PID.TID 0000.0001)  MDS_WRITE_FIELD: it,rec,kS,kL,kH=      40     1  15   1  15 file=pickup_cd.0000000040
(PID.TID 0000.0001)  MDS_WRITE_FIELD: it,rec,kS,kL,kH=      40     2  15   1  15 file=pickup_cd.0000000040
(PID.TID 0000.0001)  MDS_WRITE_FIELD: it,rec,kS,kL,kH=      40     3  15   1  15 file=pickup_cd.0000000040
(PID.TID 0000.0001)  MDS_WRITE_FIELD: it,rec,kS,kL,kH=      40     4  15   1  15 file=pickup_cd.0000000040
(PID.TID 0000.0001)  MDS_WRITE_FIELD: it,rec,kS,kL,kH=      40    61   1   1   1 file=pickup_cd.0000000040
(PID.TID 0000.0001)  MDS_WRITE_FIELD: it,rec,kS,kL,kH=      40    -1  15   1  15 file=pickup.0000000040
(PID.TID 0000.0001)  MDS_WRITE_FIELD: it,rec,kS,kL,kH=      40    -2  15   1  15 file=pickup.0000000040
(PID.TID 0000.0001)  MDS_WRITE_FIELD: it,rec,kS,kL,kH=      40    -3  15   1  15 file=pickup.0000000040
(PID.TID 0000.0001)  MDS_WRITE_FIELD: it,rec,kS,kL,kH=      40    -4  15   1  15 file=pickup.0000000040
(PID.TID 0000.0001)  MDS_WRITE_FIELD: it,rec,kS,kL,kH=      40    -5  15   1  15 file=pickup.0000000040
(PID.TID 0000.0001)  MDS_WRITE_FIELD: it,rec,kS,kL,kH=      40    -6  15   1  15 file=pickup.0000000040
(PID.TID 0000.0001)  MDS_WRITE_FIELD: it,rec,kS,kL,kH=      40    -7  15   1  15 file=pickup.0000000040
(PID.TID 0000.0001)  MDS_WRITE_FIELD: it,rec,kS,kL,kH=      40    -8  15   1  15 file=pickup.0000000040
(PID.TID 0000.0001)  MDS_WRITE_FIELD: it,rec,kS,kL,kH=      40  -121   1   1   1 file=pickup.0000000040
(PID.TID 0000.0001)  MDS_WRITE_FIELD: it,rec,kS,kL,kH=      40  -122   1   1   1 file=pickup.0000000040
(PID.TID 0000.0001)  MDS_WRITE_FIELD: it,rec,kS,kL,kH=      40  -123   1   1   1 file=pickup.0000000040
(PID.TID 0000.0001) %CHECKPOINT        40 0000000040
(PID.TID 0000.0001)  MDS_WRITE_FIELD: it,rec,kS,kL,kH=      40     1   1   1   1 file=ETAN_forecast.0000000040
(PID.TID 0000.0001)  MDS_WRITE_FIELD: it,rec,kS,kL,kH=      40     1  15   1  15 file=THETA_forecast.0000000040
(PID.TID 0000.0001)  MDS_WRITE_FIELD: it,rec,kS,kL,kH=      40     1  15   1  15 file=SALT_forecast.0000000040
(PID.TID 0000.0001)  MDS_WRITE_FIELD: it,rec,kS,kL,kH=      40     1  15   1  15 file=UVEL_forecast.0000000040
(PID.TID 0000.0001)  MDS_WRITE_FIELD: it,rec,kS,kL,kH=      40     1  15   1  15 file=VVEL_forecast.0000000040
(PID.TID 0000.0001)  MDS_WRITE_FIELD: it,rec,kS,kL,kH=      40     1   1   1   1 file=ETAN_analysis.0000000040
(PID.TID 0000.0001)  MDS_WRITE_FIELD: it,rec,kS,kL,kH=      40     1  15   1  15 file=THETA_analysis.0000000040
(PID.TID 0000.0001)  MDS_WRITE_FIELD: it,rec,kS,kL,kH=      40     1  15   1  15 file=SALT_analysis.0000000040
(PID.TID 0000.0001)  MDS_WRITE_FIELD: it,rec,kS,kL,kH=      40     1  15   1  15 file=UVEL_analysis.0000000040
(PID.TID 0000.0001)  MDS_WRITE_FIELD: it,rec,kS,kL,kH=      40     1  15   1  15 file=VVEL_analysis.0000000040
 EXTERNAL_FIELDS_LOAD,        40 : iP,iLd,i0,i1=    1    2    1    2 ; Wght=  0.1666666667  0.8333333333
 EXTERNAL_FIELDS_LOAD: (fu0,1),fu,fv= -3.5633E-02 -1.4435E-02 -1.7968E-02 -2.4239E-02
 EXTERNAL_FIELDS_LOAD: SST,SSS,Q,E-P= -2.8348E-01  3.4470E+01  2.4470E+02  8.9204E-06
DEBUG_STATS_RL:          Uvel (THERMODYNAMICS)  min= -1.45464302716067E-01
DEBUG_STATS_RL:          Uvel (THERMODYNAMICS)  max=  1.45999683331259E-01
DEBUG_STATS_RL:          Uvel (THERMODYNAMICS) mean=  3.57168743293875E-03
DEBUG_STATS_RL:          Uvel (THERMODYNAMICS) S.D.=  2.23156360498276E-02
DEBUG_STATS_RL:          Vvel (THERMODYNAMICS)  min= -1.11663498500727E-01
DEBUG_STATS_RL:          Vvel (THERMODYNAMICS)  max=  1.05538711859399E-01
DEBUG_STATS_RL:          Vvel (THERMODYNAMICS) mean= -3.13160266221735E-05
DEBUG_STATS_RL:          Vvel (THERMODYNAMICS) S.D.=  1.35537306115309E-02
DEBUG_STATS_RL:          Wvel (THERMODYNAMICS)  min= -1.19762252189963E-04
DEBUG_STATS_RL:          Wvel (THERMODYNAMICS)  max=  8.93911013132399E-05
DEBUG_STATS_RL:          Wvel (THERMODYNAMICS) mean= -3.58913163462259E-07
DEBUG_STATS_RL:          Wvel (THERMODYNAMICS) S.D.=  1.19276007734150E-05
DEBUG_STATS_RL:         Theta (THERMODYNAMICS)  min= -1.99709882463822E+00
DEBUG_STATS_RL:         Theta (THERMODYNAMICS)  max=  3.02070558307594E+01
DEBUG_STATS_RL:         Theta (THERMODYNAMICS) mean=  3.21465450058234E+00
DEBUG_STATS_RL:         Theta (THERMODYNAMICS) S.D.=  5.86479596258062E+00
DEBUG_STATS_RL:          Salt (THERMODYNAMICS)  min= -1.90819582357449E-17
DEBUG_STATS_RL:          Salt (THERMODYNAMICS)  max=  3.74549838171138E+01
DEBUG_STATS_RL:          Salt (THERMODYNAMICS) mean=  1.88448279030442E+01
DEBUG_STATS_RL:          Salt (THERMODYNAMICS) S.D.=  1.73003500609174E+01
DEBUG_STATS_RL:         GtNm1 (THERMODYNAMICS)  min= -3.77981108163481E-06
DEBUG_STATS_RL:         GtNm1 (THERMODYNAMICS)  max=  2.79192732830029E-06
DEBUG_STATS_RL:         GtNm1 (THERMODYNAMICS) mean=  1.33482372389470E-08
DEBUG_STATS_RL:         GtNm1 (THERMODYNAMICS) S.D.=  2.01450753657700E-07
DEBUG_STATS_RL:         GsNm1 (THERMODYNAMICS)  min= -4.93272746920513E-07
DEBUG_STATS_RL:         GsNm1 (THERMODYNAMICS)  max=  3.33044660165994E-07
DEBUG_STATS_RL:         GsNm1 (THERMODYNAMICS) mean=  6.90935382046290E-11
DEBUG_STATS_RL:         GsNm1 (THERMODYNAMICS) S.D.=  1.80945434280160E-08
DEBUG_STATS_RL:                EtaN (DYNAMICS)  min= -1.60401131564900E+00
DEBUG_STATS_RL:                EtaN (DYNAMICS)  max=  8.34294871213967E-01
DEBUG_STATS_RL:                EtaN (DYNAMICS) mean= -1.70027300682814E-01
DEBUG_STATS_RL:                EtaN (DYNAMICS) S.D.=  6.46740393946845E-01
DEBUG_STATS_RL:                Uvel (DYNAMICS)  min= -1.45464302716067E-01
DEBUG_STATS_RL:                Uvel (DYNAMICS)  max=  1.45999683331259E-01
DEBUG_STATS_RL:                Uvel (DYNAMICS) mean=  3.57168743293875E-03
DEBUG_STATS_RL:                Uvel (DYNAMICS) S.D.=  2.23156360498276E-02
DEBUG_STATS_RL:                Vvel (DYNAMICS)  min= -1.11663498500727E-01
DEBUG_STATS_RL:                Vvel (DYNAMICS)  max=  1.05538711859399E-01
DEBUG_STATS_RL:                Vvel (DYNAMICS) mean= -3.13160266221735E-05
DEBUG_STATS_RL:                Vvel (DYNAMICS) S.D.=  1.35537306115309E-02
DEBUG_STATS_RL:                Wvel (DYNAMICS)  min= -1.19762252189963E-04
DEBUG_STATS_RL:                Wvel (DYNAMICS)  max=  8.93911013132399E-05
DEBUG_STATS_RL:                Wvel (DYNAMICS) mean= -3.58913163462259E-07
DEBUG_STATS_RL:                Wvel (DYNAMICS) S.D.=  1.19276007734150E-05
DEBUG_STATS_RL:               Theta (DYNAMICS)  min= -1.99709882463822E+00
DEBUG_STATS_RL:               Theta (DYNAMICS)  max=  3.02070558307594E+01
DEBUG_STATS_RL:               Theta (DYNAMICS) mean=  3.21465450058234E+00
DEBUG_STATS_RL:               Theta (DYNAMICS) S.D.=  5.86479596258062E+00
DEBUG_STATS_RL:                Salt (DYNAMICS)  min= -1.90819582357449E-17
DEBUG_STATS_RL:                Salt (DYNAMICS)  max=  3.74549838171138E+01
DEBUG_STATS_RL:                Salt (DYNAMICS) mean=  1.88448279030442E+01
DEBUG_STATS_RL:                Salt (DYNAMICS) S.D.=  1.73003500609174E+01
DEBUG_STATS_RL:                  Gu (DYNAMICS)  min= -1.42266579659980E-01
DEBUG_STATS_RL:                  Gu (DYNAMICS)  max=  1.51726248568244E-01
DEBUG_STATS_RL:                  Gu (DYNAMICS) mean=  3.75600392873821E-03
DEBUG_STATS_RL:                  Gu (DYNAMICS) S.D.=  2.32748668906204E-02
DEBUG_STATS_RL:                  Gv (DYNAMICS)  min= -1.07560938881631E-01
DEBUG_STATS_RL:                  Gv (DYNAMICS)  max=  1.03786705114764E-01
DEBUG_STATS_RL:                  Gv (DYNAMICS) mean=  2.46664180777622E-03
DEBUG_STATS_RL:                  Gv (DYNAMICS) S.D.=  1.38397338792625E-02
DEBUG_STATS_RL:               GuNm1 (DYNAMICS)  min= -8.32944182215072E-06
DEBUG_STATS_RL:               GuNm1 (DYNAMICS)  max=  8.29308573683693E-06
DEBUG_STATS_RL:               GuNm1 (DYNAMICS) mean= -1.80924021650626E-08
DEBUG_STATS_RL:               GuNm1 (DYNAMICS) S.D.=  1.16952754789035E-06
DEBUG_STATS_RL:               GvNm1 (DYNAMICS)  min= -1.00135368276133E-05
DEBUG_STATS_RL:               GvNm1 (DYNAMICS)  max=  1.63277705450361E-05
DEBUG_STATS_RL:               GvNm1 (DYNAMICS) mean=  7.49871443757069E-07
DEBUG_STATS_RL:               GvNm1 (DYNAMICS) S.D.=  2.59619793435132E-06
DEBUG_STATS_RL:               GtNm1 (DYNAMICS)  min= -3.77981108163481E-06
DEBUG_STATS_RL:               GtNm1 (DYNAMICS)  max=  2.79192732830029E-06
DEBUG_STATS_RL:               GtNm1 (DYNAMICS) mean=  1.33482372389470E-08
DEBUG_STATS_RL:               GtNm1 (DYNAMICS) S.D.=  2.01450753657700E-07
DEBUG_STATS_RL:               GsNm1 (DYNAMICS)  min= -4.93272746920513E-07
DEBUG_STATS_RL:               GsNm1 (DYNAMICS)  max=  3.33044660165994E-07
DEBUG_STATS_RL:               GsNm1 (DYNAMICS) mean=  6.90935382046290E-11
DEBUG_STATS_RL:               GsNm1 (DYNAMICS) S.D.=  1.80945434280160E-08
DEBUG_STATS_RL:    cg2d_b (SOLVE_FOR_PRESSURE)  min= -1.94567257491722E+04
DEBUG_STATS_RL:    cg2d_b (SOLVE_FOR_PRESSURE)  max=  2.10381542740340E+04
DEBUG_STATS_RL:    cg2d_b (SOLVE_FOR_PRESSURE) mean=  2.95147545114053E+00
DEBUG_STATS_RL:    cg2d_b (SOLVE_FOR_PRESSURE) S.D.=  3.61618014633294E+03
 cg2d: Sum(rhs),rhsMax =   3.24774957935514E-01  1.38184230081373E+00
(PID.TID 0000.0001)  cg2d: iter=     1 ; resid.=  9.67625984179245E-02
(PID.TID 0000.0001)  cg2d: iter=     2 ; resid.=  4.60170909553344E-02
(PID.TID 0000.0001)  cg2d: iter=     3 ; resid.=  3.57894747870247E-02
(PID.TID 0000.0001)  cg2d: iter=     4 ; resid.=  3.58136241821695E-02
(PID.TID 0000.0001)  cg2d: iter=     5 ; resid.=  3.41945969217172E-02
(PID.TID 0000.0001)  cg2d: iter=     6 ; resid.=  2.99378584332843E-02
(PID.TID 0000.0001)  cg2d: iter=     7 ; resid.=  2.37670082004933E-02
(PID.TID 0000.0001)  cg2d: iter=     8 ; resid.=  2.04570049951962E-02
(PID.TID 0000.0001)  cg2d: iter=     9 ; resid.=  1.82412063299619E-02
(PID.TID 0000.0001)  cg2d: iter=    10 ; resid.=  1.71560316715834E-02
(PID.TID 0000.0001)  cg2d: iter=    11 ; resid.=  1.51068717377032E-02
(PID.TID 0000.0001)  cg2d: iter=    12 ; resid.=  1.19040505248355E-02
(PID.TID 0000.0001)  cg2d: iter=    13 ; resid.=  9.05498880435489E-03
(PID.TID 0000.0001)  cg2d: iter=    14 ; resid.=  7.27010633183119E-03
(PID.TID 0000.0001)  cg2d: iter=    15 ; resid.=  6.02541336018892E-03
(PID.TID 0000.0001)  cg2d: iter=    16 ; resid.=  5.33150382467039E-03
(PID.TID 0000.0001)  cg2d: iter=    17 ; resid.=  5.28101866098902E-03
(PID.TID 0000.0001)  cg2d: iter=    18 ; resid.=  4.66033657934455E-03
(PID.TID 0000.0001)  cg2d: iter=    19 ; resid.=  3.77387567915857E-03
(PID.TID 0000.0001)  cg2d: iter=    20 ; resid.=  3.01127817189016E-03
(PID.TID 0000.0001)  cg2d: iter=    21 ; resid.=  2.29832355824685E-03
(PID.TID 0000.0001)  cg2d: iter=    22 ; resid.=  1.96182242145096E-03
(PID.TID 0000.0001)  cg2d: iter=    23 ; resid.=  1.70779944291182E-03
(PID.TID 0000.0001)  cg2d: iter=    24 ; resid.=  1.41643679106880E-03
(PID.TID 0000.0001)  cg2d: iter=    25 ; resid.=  1.14164898088206E-03
(PID.TID 0000.0001)  cg2d: iter=    26 ; resid.=  9.07365039273236E-04
(PID.TID 0000.0001)  cg2d: iter=    27 ; resid.=  7.53166433991538E-04
(PID.TID 0000.0001)  cg2d: iter=    28 ; resid.=  6.85154910232981E-04
(PID.TID 0000.0001)  cg2d: iter=    29 ; resid.=  5.95485254087994E-04
(PID.TID 0000.0001)  cg2d: iter=    30 ; resid.=  4.73656664911231E-04
(PID.TID 0000.0001)  cg2d: iter=    31 ; resid.=  3.73096116172579E-04
(PID.TID 0000.0001)  cg2d: iter=    32 ; resid.=  2.97648092810632E-04
(PID.TID 0000.0001)  cg2d: iter=    33 ; resid.=  2.56802574230080E-04
(PID.TID 0000.0001)  cg2d: iter=    34 ; resid.=  2.06113406805283E-04
(PID.TID 0000.0001)  cg2d: iter=    35 ; resid.=  1.64197324523687E-04
(PID.TID 0000.0001)  cg2d: iter=    36 ; resid.=  1.43338850466311E-04
(PID.TID 0000.0001)  cg2d: iter=    37 ; resid.=  1.29429526279548E-04
(PID.TID 0000.0001)  cg2d: iter=    38 ; resid.=  1.16394941191679E-04
(PID.TID 0000.0001)  cg2d: iter=    39 ; resid.=  9.89408142532398E-05
(PID.TID 0000.0001)  cg2d: iter=    40 ; resid.=  7.97593902238227E-05
(PID.TID 0000.0001)  cg2d: iter=    41 ; resid.=  6.79867297549656E-05
(PID.TID 0000.0001)  cg2d: iter=    42 ; resid.=  5.84280809512394E-05
(PID.TID 0000.0001)  cg2d: iter=    43 ; resid.=  4.86162437530535E-05
(PID.TID 0000.0001)  cg2d: iter=    44 ; resid.=  3.85349253696119E-05
(PID.TID 0000.0001)  cg2d: iter=    45 ; resid.=  2.83824361802979E-05
(PID.TID 0000.0001)  cg2d: iter=    46 ; resid.=  2.07292356354514E-05
(PID.TID 0000.0001)  cg2d: iter=    47 ; resid.=  1.53008150266926E-05
(PID.TID 0000.0001)  cg2d: iter=    48 ; resid.=  1.19726994348506E-05
(PID.TID 0000.0001)  cg2d: iter=    49 ; resid.=  9.15833821802640E-06
(PID.TID 0000.0001)  cg2d: iter=    50 ; resid.=  7.11929066190811E-06
(PID.TID 0000.0001)  cg2d: iter=    51 ; resid.=  5.39020537343531E-06
(PID.TID 0000.0001)  cg2d: iter=    52 ; resid.=  4.16524612835763E-06
(PID.TID 0000.0001)  cg2d: iter=    53 ; resid.=  3.38608362606880E-06
(PID.TID 0000.0001)  cg2d: iter=    54 ; resid.=  2.67870721292650E-06
(PID.TID 0000.0001)  cg2d: iter=    55 ; resid.=  2.10401563360734E-06
(PID.TID 0000.0001)  cg2d: iter=    56 ; resid.=  1.70722042154925E-06
(PID.TID 0000.0001)  cg2d: iter=    57 ; resid.=  1.47901964611339E-06
(PID.TID 0000.0001)  cg2d: iter=    58 ; resid.=  1.33411289495697E-06
(PID.TID 0000.0001)  cg2d: iter=    59 ; resid.=  1.13711523577135E-06
(PID.TID 0000.0001)  cg2d: iter=    60 ; resid.=  8.85852354441270E-07
(PID.TID 0000.0001)  cg2d: iter=    61 ; resid.=  7.14553147831895E-07
(PID.TID 0000.0001)  cg2d: iter=    62 ; resid.=  6.30604832325731E-07
(PID.TID 0000.0001)  cg2d: iter=    63 ; resid.=  5.36322619505340E-07
(PID.TID 0000.0001)  cg2d: iter=    64 ; resid.=  4.75701003020253E-07
(PID.TID 0000.0001)  cg2d: iter=    65 ; resid.=  3.84219768334767E-07
(PID.TID 0000.0001)  cg2d: iter=    66 ; resid.=  3.14449370162623E-07
(PID.TID 0000.0001)  cg2d: iter=    67 ; resid.=  2.66196391664065E-07
(PID.TID 0000.0001)  cg2d: iter=    68 ; resid.=  2.12087509843987E-07
(PID.TID 0000.0001)  cg2d: iter=    69 ; resid.=  1.66321917056043E-07
(PID.TID 0000.0001)  cg2d: iter=    70 ; resid.=  1.32608230253924E-07
(PID.TID 0000.0001)  cg2d: iter=    71 ; resid.=  1.10808401695845E-07
(PID.TID 0000.0001)  cg2d: iter=    72 ; resid.=  9.21107055890047E-08
(PID.TID 0000.0001)  cg2d: iter=    73 ; resid.=  7.98237587566687E-08
(PID.TID 0000.0001)  cg2d: iter=    74 ; resid.=  6.63161249314157E-08
(PID.TID 0000.0001)  cg2d: iter=    75 ; resid.=  5.56657641747905E-08
(PID.TID 0000.0001)  cg2d: iter=    76 ; resid.=  4.37212835259737E-08
(PID.TID 0000.0001)  cg2d: iter=    77 ; resid.=  3.39829863564256E-08
(PID.TID 0000.0001)  cg2d: iter=    78 ; resid.=  2.82800867601785E-08
(PID.TID 0000.0001)  cg2d: iter=    79 ; resid.=  2.64325096181683E-08
(PID.TID 0000.0001)  cg2d: iter=    80 ; resid.=  2.37587457455414E-08
(PID.TID 0000.0001)  cg2d: iter=    81 ; resid.=  2.04205461622990E-08
(PID.TID 0000.0001)  cg2d: iter=    82 ; resid.=  1.67509393657029E-08
(PID.TID 0000.0001)  cg2d: iter=    83 ; resid.=  1.33387795131220E-08
(PID.TID 0000.0001)  cg2d: iter=    84 ; resid.=  1.04305607646990E-08
(PID.TID 0000.0001)  cg2d: iter=    85 ; resid.=  7.82331971001418E-09
(PID.TID 0000.0001)  cg2d: iter=    86 ; resid.=  5.71905344497268E-09
(PID.TID 0000.0001)  cg2d: iter=    87 ; resid.=  4.56760267921739E-09
(PID.TID 0000.0001)  cg2d: iter=    88 ; resid.=  3.39054772194157E-09
(PID.TID 0000.0001)  cg2d: iter=    89 ; resid.=  2.56143822887325E-09
(PID.TID 0000.0001)  cg2d: iter=    90 ; resid.=  2.03418154909300E-09
(PID.TID 0000.0001)  cg2d: iter=    91 ; resid.=  1.73419278451394E-09
(PID.TID 0000.0001)  cg2d: iter=    92 ; resid.=  1.46746942855179E-09
(PID.TID 0000.0001)  cg2d: iter=    93 ; resid.=  1.14961874714709E-09
(PID.TID 0000.0001)  cg2d: iter=    94 ; resid.=  8.35107755050144E-10
(PID.TID 0000.0001)  cg2d: iter=    95 ; resid.=  6.34681343170009E-10
(PID.TID 0000.0001)  cg2d: iter=    96 ; resid.=  5.25994952496050E-10
(PID.TID 0000.0001)  cg2d: iter=    97 ; resid.=  4.20957371632708E-10
(PID.TID 0000.0001)  cg2d: iter=    98 ; resid.=  3.05721678397306E-10
(PID.TID 0000.0001)  cg2d: iter=    99 ; resid.=  2.06166999845747E-10
(PID.TID 0000.0001)  cg2d: iter=   100 ; resid.=  1.49497856414303E-10
(PID.TID 0000.0001)  cg2d: iter=   101 ; resid.=  1.12626959003970E-10
(PID.TID 0000.0001)  cg2d: iter=   102 ; resid.=  8.85099883213966E-11
(PID.TID 0000.0001)  cg2d: iter=   103 ; resid.=  6.63987825924939E-11
(PID.TID 0000.0001)  cg2d: iter=   104 ; resid.=  5.19811650929072E-11
(PID.TID 0000.0001)  cg2d: iter=   105 ; resid.=  4.26185822513915E-11
(PID.TID 0000.0001)  cg2d: iter=   106 ; resid.=  3.47789546632986E-11
(PID.TID 0000.0001)  cg2d: iter=   107 ; resid.=  2.76800397316624E-11
(PID.TID 0000.0001)  cg2d: iter=   108 ; resid.=  2.21193398826261E-11
(PID.TID 0000.0001)  cg2d: iter=   109 ; resid.=  1.94899699089074E-11
(PID.TID 0000.0001)  cg2d: iter=   110 ; resid.=  1.47259097231378E-11
(PID.TID 0000.0001)  cg2d: iter=   111 ; resid.=  1.17599830706470E-11
(PID.TID 0000.0001)  cg2d: iter=   112 ; resid.=  1.05636903098060E-11
(PID.TID 0000.0001)  cg2d: iter=   113 ; resid.=  9.51313008191304E-12
(PID.TID 0000.0001)  cg2d: iter=   114 ; resid.=  7.82372651476649E-12
(PID.TID 0000.0001)  cg2d: iter=   115 ; resid.=  6.11557990455655E-12
(PID.TID 0000.0001)  cg2d: iter=   116 ; resid.=  4.46746053745934E-12
(PID.TID 0000.0001)  cg2d: iter=   117 ; resid.=  3.53269087916771E-12
(PID.TID 0000.0001)  cg2d: iter=   118 ; resid.=  2.70706801423661E-12
(PID.TID 0000.0001)  cg2d: iter=   119 ; resid.=  2.22460039048888E-12
(PID.TID 0000.0001)  cg2d: iter=   120 ; resid.=  1.87791001625455E-12
(PID.TID 0000.0001)  cg2d: iter=   121 ; resid.=  1.48956649377926E-12
(PID.TID 0000.0001)  cg2d: iter=   122 ; resid.=  1.13669435907934E-12
(PID.TID 0000.0001)  cg2d: iter=   123 ; resid.=  8.37908945200349E-13
(PID.TID 0000.0001)  cg2d: iter=   124 ; resid.=  6.05345659842577E-13
(PID.TID 0000.0001)  cg2d: iter=   125 ; resid.=  4.70567189869832E-13
(PID.TID 0000.0001)  cg2d: iter=   126 ; resid.=  3.75012943869214E-13
(PID.TID 0000.0001)  cg2d: iter=   127 ; resid.=  2.64321391951315E-13
(PID.TID 0000.0001)  cg2d: iter=   128 ; resid.=  1.88782566814971E-13
(PID.TID 0000.0001)  cg2d: iter=   129 ; resid.=  1.31558177166569E-13
(PID.TID 0000.0001)  cg2d: iter=   130 ; resid.=  9.74902856667604E-14
DEBUG_STATS_RL:    cg2d_x (SOLVE_FOR_PRESSURE)  min= -1.57776903305702E+01
DEBUG_STATS_RL:    cg2d_x (SOLVE_FOR_PRESSURE)  max=  8.12498708667612E+00
DEBUG_STATS_RL:    cg2d_x (SOLVE_FOR_PRESSURE) mean= -1.67156844764299E+00
DEBUG_STATS_RL:    cg2d_x (SOLVE_FOR_PRESSURE) S.D.=  6.36840701463976E+00
(PID.TID 0000.0001)      cg2d_init_res =   3.80255095182334E-01
(PID.TID 0000.0001)      cg2d_iters(min,last) =      -1     130
(PID.TID 0000.0001)      cg2d_last_res =   9.74902856667604E-14
(PID.TID 0000.0001) // =======================================================
(PID.TID 0000.0001) // Begin MONITOR dynamic field statistics
(PID.TID 0000.0001) // =======================================================
(PID.TID 0000.0001) %MON time_tsnumber                =                    41
(PID.TID 0000.0001) %MON time_secondsf                =   3.5424000000000E+06
(PID.TID 0000.0001) %MON dynstat_eta_max              =   8.2823517703123E-01
(PID.TID 0000.0001) %MON dynstat_eta_min              =  -1.6083272508227E+00
(PID.TID 0000.0001) %MON dynstat_eta_mean             =  -3.0794986623914E-03
(PID.TID 0000.0001) %MON dynstat_eta_sd               =   5.6069233836139E-01
(PID.TID 0000.0001) %MON dynstat_eta_del2             =   2.1536552617795E-03
(PID.TID 0000.0001) %MON dynstat_uvel_max             =   1.5107526733351E-01
(PID.TID 0000.0001) %MON dynstat_uvel_min             =  -1.4203053774613E-01
(PID.TID 0000.0001) %MON dynstat_uvel_mean            =   1.4741542114668E-03
(PID.TID 0000.0001) %MON dynstat_uvel_sd              =   1.3499603137189E-02
(PID.TID 0000.0001) %MON dynstat_uvel_del2            =   8.3365457485887E-05
(PID.TID 0000.0001) %MON dynstat_vvel_max             =   1.0459757770343E-01
(PID.TID 0000.0001) %MON dynstat_vvel_min             =  -1.1157014587938E-01
(PID.TID 0000.0001) %MON dynstat_vvel_mean            =   4.9021543072567E-05
(PID.TID 0000.0001) %MON dynstat_vvel_sd              =   8.8042515410802E-03
(PID.TID 0000.0001) %MON dynstat_vvel_del2            =   7.5593523696931E-05
(PID.TID 0000.0001) %MON dynstat_wvel_max             =   9.4942455316814E-05
(PID.TID 0000.0001) %MON dynstat_wvel_min             =  -1.1870131105684E-04
(PID.TID 0000.0001) %MON dynstat_wvel_mean            =   2.0464896019529E-22
(PID.TID 0000.0001) %MON dynstat_wvel_sd              =   1.3539004079656E-05
(PID.TID 0000.0001) %MON dynstat_wvel_del2            =   1.3959560955262E-07
(PID.TID 0000.0001) %MON dynstat_theta_max            =   3.0207055830759E+01
(PID.TID 0000.0001) %MON dynstat_theta_min            =  -1.9970988246382E+00
(PID.TID 0000.0001) %MON dynstat_theta_mean           =   3.6220517653177E+00
(PID.TID 0000.0001) %MON dynstat_theta_sd             =   4.4194796753396E+00
(PID.TID 0000.0001) %MON dynstat_theta_del2           =   4.7319764607177E-03
(PID.TID 0000.0001) %MON dynstat_salt_max             =   3.7454983817114E+01
(PID.TID 0000.0001) %MON dynstat_salt_min             =   2.9827805808285E+01
(PID.TID 0000.0001) %MON dynstat_salt_mean            =   3.4717979611606E+01
(PID.TID 0000.0001) %MON dynstat_salt_sd              =   2.9631611100784E-01
(PID.TID 0000.0001) %MON dynstat_salt_del2            =   9.8485637885887E-04
(PID.TID 0000.0001) %MON dynstat_sst_max              =   3.0207055830759E+01
(PID.TID 0000.0001) %MON dynstat_sst_min              =  -1.9970988246382E+00
(PID.TID 0000.0001) %MON dynstat_sst_mean             =   1.8847260199927E+01
(PID.TID 0000.0001) %MON dynstat_sst_sd               =   9.0129642811208E+00
(PID.TID 0000.0001) %MON dynstat_sst_del2             =   2.6910682500363E-02
(PID.TID 0000.0001) %MON dynstat_sss_max              =   3.7429054345314E+01
(PID.TID 0000.0001) %MON dynstat_sss_min              =   2.9827805808285E+01
(PID.TID 0000.0001) %MON dynstat_sss_mean             =   3.4844043352654E+01
(PID.TID 0000.0001) %MON dynstat_sss_sd               =   9.7678160423307E-01
(PID.TID 0000.0001) %MON dynstat_sss_del2             =   7.8478854743411E-03
(PID.TID 0000.0001) %MON forcing_qnet_max             =   3.6522328694661E+02
(PID.TID 0000.0001) %MON forcing_qnet_min             =  -1.7403156534831E+02
(PID.TID 0000.0001) %MON forcing_qnet_mean            =  -1.4389796815960E+01
(PID.TID 0000.0001) %MON forcing_qnet_sd              =   8.4259729047287E+01
(PID.TID 0000.0001) %MON forcing_qnet_del2            =   9.5401834956669E-01
(PID.TID 0000.0001) %MON forcing_qsw_max              =   0.0000000000000E+00
(PID.TID 0000.0001) %MON forcing_qsw_min              =   0.0000000000000E+00
(PID.TID 0000.0001) %MON forcing_qsw_mean             =   0.0000000000000E+00
(PID.TID 0000.0001) %MON forcing_qsw_sd               =   0.0000000000000E+00
(PID.TID 0000.0001) %MON forcing_qsw_del2             =   0.0000000000000E+00
(PID.TID 0000.0001) %MON forcing_empmr_max            =   7.4321995668925E-05
(PID.TID 0000.0001) %MON forcing_empmr_min            =  -7.8147062746818E-05
(PID.TID 0000.0001) %MON forcing_empmr_mean           =   9.3999699360960E-07
(PID.TID 0000.0001) %MON forcing_empmr_sd             =   2.8003424718777E-05
(PID.TID 0000.0001) %MON forcing_empmr_del2           =   3.5419346009159E-07
(PID.TID 0000.0001) %MON forcing_fu_max               =   2.9769973456860E-01
(PID.TID 0000.0001) %MON forcing_fu_min               =  -2.0743273198605E-01
(PID.TID 0000.0001) %MON forcing_fu_mean              =   1.7359240539291E-02
(PID.TID 0000.0001) %MON forcing_fu_sd                =   9.1619137544782E-02
(PID.TID 0000.0001) %MON forcing_fu_del2              =   7.0729330182073E-04
(PID.TID 0000.0001) %MON forcing_fv_max               =   1.9102514038483E-01
(PID.TID 0000.0001) %MON forcing_fv_min               =  -1.8381976087888E-01
(PID.TID 0000.0001) %MON forcing_fv_mean              =  -6.8904204073845E-03
(PID.TID 0000.0001) %MON forcing_fv_sd                =   4.4605886402216E-02
(PID.TID 0000.0001) %MON forcing_fv_del2              =   5.0576945240665E-04
(PID.TID 0000.0001) %MON trAdv_CFL_u_max              =   4.8267897199176E-02
(PID.TID 0000.0001) %MON trAdv_CFL_v_max              =   2.3245954183398E-02
(PID.TID 0000.0001) %MON trAdv_CFL_w_max              =   2.9449736025713E-02
(PID.TID 0000.0001) %MON advcfl_uvel_max              =   4.9935756932380E-02
(PID.TID 0000.0001) %MON advcfl_vvel_max              =   2.1676289974352E-02
(PID.TID 0000.0001) %MON advcfl_wvel_max              =   3.2813488465932E-02
(PID.TID 0000.0001) %MON advcfl_W_hf_max              =   3.9376186159118E-02
(PID.TID 0000.0001) %MON pe_b_mean                    =   4.0229398952895E-04
(PID.TID 0000.0001) %MON ke_max                       =   1.3316810975908E-02
(PID.TID 0000.0001) %MON ke_mean                      =   1.1858224202987E-04
(PID.TID 0000.0001) %MON ke_vol                       =   1.3226782436723E+18
(PID.TID 0000.0001) %MON vort_r_min                   =  -4.5067243681593E-07
(PID.TID 0000.0001) %MON vort_r_max                   =   4.0267608161362E-07
(PID.TID 0000.0001) %MON vort_a_mean                  =  -2.5274807104237E-05
(PID.TID 0000.0001) %MON vort_a_sd                    =   7.3604546761902E-05
(PID.TID 0000.0001) %MON vort_p_mean                  =  -3.1845655430030E-05
(PID.TID 0000.0001) %MON vort_p_sd                    =   1.3162448328178E-04
(PID.TID 0000.0001) %MON surfExpan_theta_mean         =   1.9812689806215E-07
(PID.TID 0000.0001) %MON surfExpan_salt_mean          =   3.9763178906319E-08
(PID.TID 0000.0001) // =======================================================
(PID.TID 0000.0001) // End MONITOR dynamic field statistics
(PID.TID 0000.0001) // =======================================================
 EXTERNAL_FIELDS_LOAD,        41 : iP,iLd,i0,i1=    1    2    1    2 ; Wght=  0.1333333333  0.8666666667
 EXTERNAL_FIELDS_LOAD: (fu0,1),fu,fv= -3.5633E-02 -1.4435E-02 -1.7261E-02 -2.2918E-02
 EXTERNAL_FIELDS_LOAD: SST,SSS,Q,E-P= -3.3315E-01  3.4460E+01  2.4385E+02  8.8118E-06
DEBUG_STATS_RL:          Uvel (THERMODYNAMICS)  min= -1.42030537746134E-01
DEBUG_STATS_RL:          Uvel (THERMODYNAMICS)  max=  1.51075267333507E-01
DEBUG_STATS_RL:          Uvel (THERMODYNAMICS) mean=  3.93722335003441E-03
DEBUG_STATS_RL:          Uvel (THERMODYNAMICS) S.D.=  2.29609713990389E-02
DEBUG_STATS_RL:          Vvel (THERMODYNAMICS)  min= -1.11570145879379E-01
DEBUG_STATS_RL:          Vvel (THERMODYNAMICS)  max=  1.04597577703428E-01
DEBUG_STATS_RL:          Vvel (THERMODYNAMICS) mean=  1.35571423788270E-04
DEBUG_STATS_RL:          Vvel (THERMODYNAMICS) S.D.=  1.36330373680178E-02
DEBUG_STATS_RL:          Wvel (THERMODYNAMICS)  min= -1.18701311056838E-04
DEBUG_STATS_RL:          Wvel (THERMODYNAMICS)  max=  9.49424553168141E-05
DEBUG_STATS_RL:          Wvel (THERMODYNAMICS) mean= -3.26401160949232E-07
DEBUG_STATS_RL:          Wvel (THERMODYNAMICS) S.D.=  1.17967050545621E-05
DEBUG_STATS_RL:         Theta (THERMODYNAMICS)  min= -1.99577463809928E+00
DEBUG_STATS_RL:         Theta (THERMODYNAMICS)  max=  3.02283332462555E+01
DEBUG_STATS_RL:         Theta (THERMODYNAMICS) mean=  3.21523690511760E+00
DEBUG_STATS_RL:         Theta (THERMODYNAMICS) S.D.=  5.86558679104596E+00
DEBUG_STATS_RL:          Salt (THERMODYNAMICS)  min= -1.90819582357449E-17
DEBUG_STATS_RL:          Salt (THERMODYNAMICS)  max=  3.74550916648878E+01
DEBUG_STATS_RL:          Salt (THERMODYNAMICS) mean=  1.88448380822706E+01
DEBUG_STATS_RL:          Salt (THERMODYNAMICS) S.D.=  1.73003599659521E+01
DEBUG_STATS_RL:         GtNm1 (THERMODYNAMICS)  min= -3.94719697258570E-06
DEBUG_STATS_RL:         GtNm1 (THERMODYNAMICS)  max=  2.91785723806165E-06
DEBUG_STATS_RL:         GtNm1 (THERMODYNAMICS) mean=  1.29365099349033E-08
DEBUG_STATS_RL:         GtNm1 (THERMODYNAMICS) S.D.=  2.00176966964664E-07
DEBUG_STATS_RL:         GsNm1 (THERMODYNAMICS)  min= -4.17495033838262E-07
DEBUG_STATS_RL:         GsNm1 (THERMODYNAMICS)  max=  3.20997944038631E-07
DEBUG_STATS_RL:         GsNm1 (THERMODYNAMICS) mean=  1.27053811282942E-10
DEBUG_STATS_RL:         GsNm1 (THERMODYNAMICS) S.D.=  1.82318227877953E-08
DEBUG_STATS_RL:                EtaN (DYNAMICS)  min= -1.60832725082273E+00
DEBUG_STATS_RL:                EtaN (DYNAMICS)  max=  8.28235177031229E-01
DEBUG_STATS_RL:                EtaN (DYNAMICS) mean= -1.70394337170539E-01
DEBUG_STATS_RL:                EtaN (DYNAMICS) S.D.=  6.49175026976530E-01
DEBUG_STATS_RL:                Uvel (DYNAMICS)  min= -1.42030537746134E-01
DEBUG_STATS_RL:                Uvel (DYNAMICS)  max=  1.51075267333507E-01
DEBUG_STATS_RL:                Uvel (DYNAMICS) mean=  3.93722335003441E-03
DEBUG_STATS_RL:                Uvel (DYNAMICS) S.D.=  2.29609713990389E-02
DEBUG_STATS_RL:                Vvel (DYNAMICS)  min= -1.11570145879379E-01
DEBUG_STATS_RL:                Vvel (DYNAMICS)  max=  1.04597577703428E-01
DEBUG_STATS_RL:                Vvel (DYNAMICS) mean=  1.35571423788270E-04
DEBUG_STATS_RL:                Vvel (DYNAMICS) S.D.=  1.36330373680178E-02
DEBUG_STATS_RL:                Wvel (DYNAMICS)  min= -1.18701311056838E-04
DEBUG_STATS_RL:                Wvel (DYNAMICS)  max=  9.49424553168141E-05
DEBUG_STATS_RL:                Wvel (DYNAMICS) mean= -3.26401160949232E-07
DEBUG_STATS_RL:                Wvel (DYNAMICS) S.D.=  1.17967050545621E-05
DEBUG_STATS_RL:               Theta (DYNAMICS)  min= -1.99577463809928E+00
DEBUG_STATS_RL:               Theta (DYNAMICS)  max=  3.02283332462555E+01
DEBUG_STATS_RL:               Theta (DYNAMICS) mean=  3.21523690511760E+00
DEBUG_STATS_RL:               Theta (DYNAMICS) S.D.=  5.86558679104596E+00
DEBUG_STATS_RL:                Salt (DYNAMICS)  min= -1.90819582357449E-17
DEBUG_STATS_RL:                Salt (DYNAMICS)  max=  3.74550916648878E+01
DEBUG_STATS_RL:                Salt (DYNAMICS) mean=  1.88448380822706E+01
DEBUG_STATS_RL:                Salt (DYNAMICS) S.D.=  1.73003599659521E+01
DEBUG_STATS_RL:                  Gu (DYNAMICS)  min= -1.41643701104121E-01
DEBUG_STATS_RL:                  Gu (DYNAMICS)  max=  1.54761408723061E-01
DEBUG_STATS_RL:                  Gu (DYNAMICS) mean=  4.10227125025974E-03
DEBUG_STATS_RL:                  Gu (DYNAMICS) S.D.=  2.38326202949008E-02
DEBUG_STATS_RL:                  Gv (DYNAMICS)  min= -1.07311071142491E-01
DEBUG_STATS_RL:                  Gv (DYNAMICS)  max=  1.08221331588041E-01
DEBUG_STATS_RL:                  Gv (DYNAMICS) mean=  2.67411877128467E-03
DEBUG_STATS_RL:                  Gv (DYNAMICS) S.D.=  1.40145868985406E-02
DEBUG_STATS_RL:               GuNm1 (DYNAMICS)  min= -8.44255319830611E-06
DEBUG_STATS_RL:               GuNm1 (DYNAMICS)  max=  8.35625582720919E-06
DEBUG_STATS_RL:               GuNm1 (DYNAMICS) mean= -1.74298851732116E-08
DEBUG_STATS_RL:               GuNm1 (DYNAMICS) S.D.=  1.16860609805405E-06
DEBUG_STATS_RL:               GvNm1 (DYNAMICS)  min= -9.92399079421860E-06
DEBUG_STATS_RL:               GvNm1 (DYNAMICS)  max=  1.63268089779741E-05
DEBUG_STATS_RL:               GvNm1 (DYNAMICS) mean=  7.49379547411391E-07
DEBUG_STATS_RL:               GvNm1 (DYNAMICS) S.D.=  2.59221385975623E-06
DEBUG_STATS_RL:               GtNm1 (DYNAMICS)  min= -3.94719697258570E-06
DEBUG_STATS_RL:               GtNm1 (DYNAMICS)  max=  2.91785723806165E-06
DEBUG_STATS_RL:               GtNm1 (DYNAMICS) mean=  1.29365099349033E-08
DEBUG_STATS_RL:               GtNm1 (DYNAMICS) S.D.=  2.00176966964664E-07
DEBUG_STATS_RL:               GsNm1 (DYNAMICS)  min= -4.17495033838262E-07
DEBUG_STATS_RL:               GsNm1 (DYNAMICS)  max=  3.20997944038631E-07
DEBUG_STATS_RL:               GsNm1 (DYNAMICS) mean=  1.27053811282942E-10
DEBUG_STATS_RL:               GsNm1 (DYNAMICS) S.D.=  1.82318227877953E-08
DEBUG_STATS_RL:    cg2d_b (SOLVE_FOR_PRESSURE)  min= -1.94818632623314E+04
DEBUG_STATS_RL:    cg2d_b (SOLVE_FOR_PRESSURE)  max=  2.15543995232896E+04
DEBUG_STATS_RL:    cg2d_b (SOLVE_FOR_PRESSURE) mean=  3.02673717776351E+00
DEBUG_STATS_RL:    cg2d_b (SOLVE_FOR_PRESSURE) S.D.=  3.60798459776353E+03
 cg2d: Sum(rhs),rhsMax =   3.25079645988368E-01  1.41575067099314E+00
(PID.TID 0000.0001)  cg2d: iter=     1 ; resid.=  9.45100155209461E-02
(PID.TID 0000.0001)  cg2d: iter=     2 ; resid.=  4.41137405727909E-02
(PID.TID 0000.0001)  cg2d: iter=     3 ; resid.=  3.47257382420037E-02
(PID.TID 0000.0001)  cg2d: iter=     4 ; resid.=  3.46041150471027E-02
(PID.TID 0000.0001)  cg2d: iter=     5 ; resid.=  3.25741229488312E-02
(PID.TID 0000.0001)  cg2d: iter=     6 ; resid.=  2.84824774451550E-02
(PID.TID 0000.0001)  cg2d: iter=     7 ; resid.=  2.26853264227029E-02
(PID.TID 0000.0001)  cg2d: iter=     8 ; resid.=  2.00317989814367E-02
(PID.TID 0000.0001)  cg2d: iter=     9 ; resid.=  1.84004129697128E-02
(PID.TID 0000.0001)  cg2d: iter=    10 ; resid.=  1.75409526252903E-02
(PID.TID 0000.0001)  cg2d: iter=    11 ; resid.=  1.54697625941900E-02
(PID.TID 0000.0001)  cg2d: iter=    12 ; resid.=  1.22086361265876E-02
(PID.TID 0000.0001)  cg2d: iter=    13 ; resid.=  9.37276158349067E-03
(PID.TID 0000.0001)  cg2d: iter=    14 ; resid.=  7.38027016537035E-03
(PID.TID 0000.0001)  cg2d: iter=    15 ; resid.=  6.01772833661648E-03
(PID.TID 0000.0001)  cg2d: iter=    16 ; resid.=  5.24039258590231E-03
(PID.TID 0000.0001)  cg2d: iter=    17 ; resid.=  5.11488897326498E-03
(PID.TID 0000.0001)  cg2d: iter=    18 ; resid.=  4.38692516957650E-03
(PID.TID 0000.0001)  cg2d: iter=    19 ; resid.=  3.52174346349959E-03
(PID.TID 0000.0001)  cg2d: iter=    20 ; resid.=  2.81853996369850E-03
(PID.TID 0000.0001)  cg2d: iter=    21 ; resid.=  2.17563861193388E-03
(PID.TID 0000.0001)  cg2d: iter=    22 ; resid.=  1.87631419772209E-03
(PID.TID 0000.0001)  cg2d: iter=    23 ; resid.=  1.62435730279248E-03
(PID.TID 0000.0001)  cg2d: iter=    24 ; resid.=  1.32408160899125E-03
(PID.TID 0000.0001)  cg2d: iter=    25 ; resid.=  1.05280632040081E-03
(PID.TID 0000.0001)  cg2d: iter=    26 ; resid.=  8.36149695274888E-04
(PID.TID 0000.0001)  cg2d: iter=    27 ; resid.=  7.05836347300011E-04
(PID.TID 0000.0001)  cg2d: iter=    28 ; resid.=  6.46515106687974E-04
(PID.TID 0000.0001)  cg2d: iter=    29 ; resid.=  5.72961237870559E-04
(PID.TID 0000.0001)  cg2d: iter=    30 ; resid.=  4.61207120936946E-04
(PID.TID 0000.0001)  cg2d: iter=    31 ; resid.=  3.66934425963954E-04
(PID.TID 0000.0001)  cg2d: iter=    32 ; resid.=  2.96711028247829E-04
(PID.TID 0000.0001)  cg2d: iter=    33 ; resid.=  2.59423606008679E-04
(PID.TID 0000.0001)  cg2d: iter=    34 ; resid.=  2.09438634677564E-04
(PID.TID 0000.0001)  cg2d: iter=    35 ; resid.=  1.66501842777604E-04
(PID.TID 0000.0001)  cg2d: iter=    36 ; resid.=  1.44172795804835E-04
(PID.TID 0000.0001)  cg2d: iter=    37 ; resid.=  1.26500353994772E-04
(PID.TID 0000.0001)  cg2d: iter=    38 ; resid.=  1.10486433550230E-04
(PID.TID 0000.0001)  cg2d: iter=    39 ; resid.=  9.34750003467697E-05
(PID.TID 0000.0001)  cg2d: iter=    40 ; resid.=  7.69940470686186E-05
(PID.TID 0000.0001)  cg2d: iter=    41 ; resid.=  6.78396981466198E-05
(PID.TID 0000.0001)  cg2d: iter=    42 ; resid.=  5.79112389441593E-05
(PID.TID 0000.0001)  cg2d: iter=    43 ; resid.=  4.70554919233258E-05
(PID.TID 0000.0001)  cg2d: iter=    44 ; resid.=  3.70470459861143E-05
(PID.TID 0000.0001)  cg2d: iter=    45 ; resid.=  2.80710477687653E-05
(PID.TID 0000.0001)  cg2d: iter=    46 ; resid.=  2.08048206506072E-05
(PID.TID 0000.0001)  cg2d: iter=    47 ; resid.=  1.52138946255380E-05
(PID.TID 0000.0001)  cg2d: iter=    48 ; resid.=  1.17878251698661E-05
(PID.TID 0000.0001)  cg2d: iter=    49 ; resid.=  9.22909903008067E-06
(PID.TID 0000.0001)  cg2d: iter=    50 ; resid.=  7.38677206942303E-06
(PID.TID 0000.0001)  cg2d: iter=    51 ; resid.=  5.75476993081531E-06
(PID.TID 0000.0001)  cg2d: iter=    52 ; resid.=  4.60017591985766E-06
(PID.TID 0000.0001)  cg2d: iter=    53 ; resid.=  3.95273112234137E-06
(PID.TID 0000.0001)  cg2d: iter=    54 ; resid.=  3.33474425012378E-06
(PID.TID 0000.0001)  cg2d: iter=    55 ; resid.=  2.72250395488329E-06
(PID.TID 0000.0001)  cg2d: iter=    56 ; resid.=  2.28226900113795E-06
(PID.TID 0000.0001)  cg2d: iter=    57 ; resid.=  2.07447326388012E-06
(PID.TID 0000.0001)  cg2d: iter=    58 ; resid.=  1.88262763202261E-06
(PID.TID 0000.0001)  cg2d: iter=    59 ; resid.=  1.56432143587802E-06
(PID.TID 0000.0001)  cg2d: iter=    60 ; resid.=  1.20051480530686E-06
(PID.TID 0000.0001)  cg2d: iter=    61 ; resid.=  1.00733158180791E-06
(PID.TID 0000.0001)  cg2d: iter=    62 ; resid.=  9.23788075734429E-07
(PID.TID 0000.0001)  cg2d: iter=    63 ; resid.=  7.77493319669127E-07
(PID.TID 0000.0001)  cg2d: iter=    64 ; resid.=  6.66166499183282E-07
(PID.TID 0000.0001)  cg2d: iter=    65 ; resid.=  5.27655185255656E-07
(PID.TID 0000.0001)  cg2d: iter=    66 ; resid.=  4.28811130440055E-07
(PID.TID 0000.0001)  cg2d: iter=    67 ; resid.=  3.49890835626120E-07
(PID.TID 0000.0001)  cg2d: iter=    68 ; resid.=  2.69038946784700E-07
(PID.TID 0000.0001)  cg2d: iter=    69 ; resid.=  2.06456478643041E-07
(PID.TID 0000.0001)  cg2d: iter=    70 ; resid.=  1.63598683039141E-07
(PID.TID 0000.0001)  cg2d: iter=    71 ; resid.=  1.34427767068860E-07
(PID.TID 0000.0001)  cg2d: iter=    72 ; resid.=  1.08048942734182E-07
(PID.TID 0000.0001)  cg2d: iter=    73 ; resid.=  9.07979689170139E-08
(PID.TID 0000.0001)  cg2d: iter=    74 ; resid.=  7.38345840272447E-08
(PID.TID 0000.0001)  cg2d: iter=    75 ; resid.=  6.00475920056035E-08
(PID.TID 0000.0001)  cg2d: iter=    76 ; resid.=  4.59049136703127E-08
(PID.TID 0000.0001)  cg2d: iter=    77 ; resid.=  3.53022906287784E-08
(PID.TID 0000.0001)  cg2d: iter=    78 ; resid.=  2.90564576882094E-08
(PID.TID 0000.0001)  cg2d: iter=    79 ; resid.=  2.63233852599877E-08
(PID.TID 0000.0001)  cg2d: iter=    80 ; resid.=  2.29810892556563E-08
(PID.TID 0000.0001)  cg2d: iter=    81 ; resid.=  1.94214142836929E-08
(PID.TID 0000.0001)  cg2d: iter=    82 ; resid.=  1.57865496080999E-08
(PID.TID 0000.0001)  cg2d: iter=    83 ; resid.=  1.24983361484916E-08
(PID.TID 0000.0001)  cg2d: iter=    84 ; resid.=  9.73876589742954E-09
(PID.TID 0000.0001)  cg2d: iter=    85 ; resid.=  7.43356596733435E-09
(PID.TID 0000.0001)  cg2d: iter=    86 ; resid.=  5.48882185294249E-09
(PID.TID 0000.0001)  cg2d: iter=    87 ; resid.=  4.34631527039804E-09
(PID.TID 0000.0001)  cg2d: iter=    88 ; resid.=  3.24379434399459E-09
(PID.TID 0000.0001)  cg2d: iter=    89 ; resid.=  2.51886611682432E-09
(PID.TID 0000.0001)  cg2d: iter=    90 ; resid.=  2.03301845463241E-09
(PID.TID 0000.0001)  cg2d: iter=    91 ; resid.=  1.72467418909371E-09
(PID.TID 0000.0001)  cg2d: iter=    92 ; resid.=  1.44395739176807E-09
(PID.TID 0000.0001)  cg2d: iter=    93 ; resid.=  1.12383479208024E-09
(PID.TID 0000.0001)  cg2d: iter=    94 ; resid.=  8.09262256808853E-10
(PID.TID 0000.0001)  cg2d: iter=    95 ; resid.=  6.00778079925596E-10
(PID.TID 0000.0001)  cg2d: iter=    96 ; resid.=  4.87369746890165E-10
(PID.TID 0000.0001)  cg2d: iter=    97 ; resid.=  3.91241719597895E-10
(PID.TID 0000.0001)  cg2d: iter=    98 ; resid.=  2.85535931279936E-10
(PID.TID 0000.0001)  cg2d: iter=    99 ; resid.=  1.91265377328658E-10
(PID.TID 0000.0001)  cg2d: iter=   100 ; resid.=  1.40007163430863E-10
(PID.TID 0000.0001)  cg2d: iter=   101 ; resid.=  1.06749200526351E-10
(PID.TID 0000.0001)  cg2d: iter=   102 ; resid.=  8.31706044220449E-11
(PID.TID 0000.0001)  cg2d: iter=   103 ; resid.=  6.12203040830199E-11
(PID.TID 0000.0001)  cg2d: iter=   104 ; resid.=  4.68366798295775E-11
(PID.TID 0000.0001)  cg2d: iter=   105 ; resid.=  3.79287745230049E-11
(PID.TID 0000.0001)  cg2d: iter=   106 ; resid.=  3.02310425128761E-11
(PID.TID 0000.0001)  cg2d: iter=   107 ; resid.=  2.29781556140836E-11
(PID.TID 0000.0001)  cg2d: iter=   108 ; resid.=  1.73984139624003E-11
(PID.TID 0000.0001)  cg2d: iter=   109 ; resid.=  1.46923650451288E-11
(PID.TID 0000.0001)  cg2d: iter=   110 ; resid.=  1.10618539668711E-11
(PID.TID 0000.0001)  cg2d: iter=   111 ; resid.=  8.66594836476671E-12
(PID.TID 0000.0001)  cg2d: iter=   112 ; resid.=  7.61952981479708E-12
(PID.TID 0000.0001)  cg2d: iter=   113 ; resid.=  6.90062836019118E-12
(PID.TID 0000.0001)  cg2d: iter=   114 ; resid.=  5.87745190039661E-12
(PID.TID 0000.0001)  cg2d: iter=   115 ; resid.=  4.74501795338628E-12
(PID.TID 0000.0001)  cg2d: iter=   116 ; resid.=  3.56351832583945E-12
(PID.TID 0000.0001)  cg2d: iter=   117 ; resid.=  2.94949664486039E-12
(PID.TID 0000.0001)  cg2d: iter=   118 ; resid.=  2.40324092068347E-12
(PID.TID 0000.0001)  cg2d: iter=   119 ; resid.=  1.98810341020938E-12
(PID.TID 0000.0001)  cg2d: iter=   120 ; resid.=  1.66743522760030E-12
(PID.TID 0000.0001)  cg2d: iter=   121 ; resid.=  1.36001946704893E-12
(PID.TID 0000.0001)  cg2d: iter=   122 ; resid.=  1.07945338522508E-12
(PID.TID 0000.0001)  cg2d: iter=   123 ; resid.=  8.16572545283947E-13
(PID.TID 0000.0001)  cg2d: iter=   124 ; resid.=  6.03875094290040E-13
(PID.TID 0000.0001)  cg2d: iter=   125 ; resid.=  4.72927556010244E-13
(PID.TID 0000.0001)  cg2d: iter=   126 ; resid.=  3.72477297396955E-13
(PID.TID 0000.0001)  cg2d: iter=   127 ; resid.=  2.54751083444317E-13
(PID.TID 0000.0001)  cg2d: iter=   128 ; resid.=  1.77923826761226E-13
(PID.TID 0000.0001)  cg2d: iter=   129 ; resid.=  1.26364199031874E-13
(PID.TID 0000.0001)  cg2d: iter=   130 ; resid.=  9.44427682889993E-14
DEBUG_STATS_RL:    cg2d_x (SOLVE_FOR_PRESSURE)  min= -1.58885640767334E+01
DEBUG_STATS_RL:    cg2d_x (SOLVE_FOR_PRESSURE)  max=  8.08382964514351E+00
DEBUG_STATS_RL:    cg2d_x (SOLVE_FOR_PRESSURE) mean= -1.67589179773716E+00
DEBUG_STATS_RL:    cg2d_x (SOLVE_FOR_PRESSURE) S.D.=  6.39800290287521E+00
(PID.TID 0000.0001)      cg2d_init_res =   3.69436535209667E-01
(PID.TID 0000.0001)      cg2d_iters(min,last) =      -1     130
(PID.TID 0000.0001)      cg2d_last_res =   9.44427682889993E-14
(PID.TID 0000.0001) // =======================================================
(PID.TID 0000.0001) // Begin MONITOR dynamic field statistics
(PID.TID 0000.0001) // =======================================================
(PID.TID 0000.0001) %MON time_tsnumber                =                    42
(PID.TID 0000.0001) %MON time_secondsf                =   3.6288000000000E+06
(PID.TID 0000.0001) %MON dynstat_eta_max              =   8.2403971917874E-01
(PID.TID 0000.0001) %MON dynstat_eta_min              =  -1.6196293656202E+00
(PID.TID 0000.0001) %MON dynstat_eta_mean             =  -3.1580249419770E-03
(PID.TID 0000.0001) %MON dynstat_eta_sd               =   5.6302834556729E-01
(PID.TID 0000.0001) %MON dynstat_eta_del2             =   2.1568752592415E-03
(PID.TID 0000.0001) %MON dynstat_uvel_max             =   1.5423203760956E-01
(PID.TID 0000.0001) %MON dynstat_uvel_min             =  -1.4148243870604E-01
(PID.TID 0000.0001) %MON dynstat_uvel_mean            =   1.5629260172665E-03
(PID.TID 0000.0001) %MON dynstat_uvel_sd              =   1.3833698990690E-02
(PID.TID 0000.0001) %MON dynstat_uvel_del2            =   8.4260385943177E-05
(PID.TID 0000.0001) %MON dynstat_vvel_max             =   1.0729710497784E-01
(PID.TID 0000.0001) %MON dynstat_vvel_min             =  -1.1105251031034E-01
(PID.TID 0000.0001) %MON dynstat_vvel_mean            =   5.3147513183755E-05
(PID.TID 0000.0001) %MON dynstat_vvel_sd              =   8.7874504644705E-03
(PID.TID 0000.0001) %MON dynstat_vvel_del2            =   7.5565349374168E-05
(PID.TID 0000.0001) %MON dynstat_wvel_max             =   1.0065221686799E-04
(PID.TID 0000.0001) %MON dynstat_wvel_min             =  -1.1625780177226E-04
(PID.TID 0000.0001) %MON dynstat_wvel_mean            =  -1.0068162299613E-22
(PID.TID 0000.0001) %MON dynstat_wvel_sd              =   1.3424412911258E-05
(PID.TID 0000.0001) %MON dynstat_wvel_del2            =   1.3714998457955E-07
(PID.TID 0000.0001) %MON dynstat_theta_max            =   3.0228333246256E+01
(PID.TID 0000.0001) %MON dynstat_theta_min            =  -1.9957746380993E+00
(PID.TID 0000.0001) %MON dynstat_theta_mean           =   3.6221276645813E+00
(PID.TID 0000.0001) %MON dynstat_theta_sd             =   4.4196952235930E+00
(PID.TID 0000.0001) %MON dynstat_theta_del2           =   4.7290236676581E-03
(PID.TID 0000.0001) %MON dynstat_salt_max             =   3.7455091664888E+01
(PID.TID 0000.0001) %MON dynstat_salt_min             =   2.9829826781949E+01
(PID.TID 0000.0001) %MON dynstat_salt_mean            =   3.4717979765136E+01
(PID.TID 0000.0001) %MON dynstat_salt_sd              =   2.9632253137689E-01
(PID.TID 0000.0001) %MON dynstat_salt_del2            =   9.8467141645821E-04
(PID.TID 0000.0001) %MON dynstat_sst_max              =   3.0228333246256E+01
(PID.TID 0000.0001) %MON dynstat_sst_min              =  -1.9957746380993E+00
(PID.TID 0000.0001) %MON dynstat_sst_mean             =   1.8858090058029E+01
(PID.TID 0000.0001) %MON dynstat_sst_sd               =   9.0110689209451E+00
(PID.TID 0000.0001) %MON dynstat_sst_del2             =   2.6964238834510E-02
(PID.TID 0000.0001) %MON dynstat_sss_max              =   3.7430296298111E+01
(PID.TID 0000.0001) %MON dynstat_sss_min              =   2.9829826781949E+01
(PID.TID 0000.0001) %MON dynstat_sss_mean             =   3.4844058377253E+01
(PID.TID 0000.0001) %MON dynstat_sss_sd               =   9.7689201934419E-01
(PID.TID 0000.0001) %MON dynstat_sss_del2             =   7.8531949094288E-03
(PID.TID 0000.0001) %MON forcing_qnet_max             =   3.6386907755534E+02
(PID.TID 0000.0001) %MON forcing_qnet_min             =  -1.7379204610189E+02
(PID.TID 0000.0001) %MON forcing_qnet_mean            =  -1.4304887648557E+01
(PID.TID 0000.0001) %MON forcing_qnet_sd              =   8.3311816502922E+01
(PID.TID 0000.0001) %MON forcing_qnet_del2            =   9.5280129086967E-01
(PID.TID 0000.0001) %MON forcing_qsw_max              =   0.0000000000000E+00
(PID.TID 0000.0001) %MON forcing_qsw_min              =   0.0000000000000E+00
(PID.TID 0000.0001) %MON forcing_qsw_mean             =   0.0000000000000E+00
(PID.TID 0000.0001) %MON forcing_qsw_sd               =   0.0000000000000E+00
(PID.TID 0000.0001) %MON forcing_qsw_del2             =   0.0000000000000E+00
(PID.TID 0000.0001) %MON forcing_empmr_max            =   7.4007905936924E-05
(PID.TID 0000.0001) %MON forcing_empmr_min            =  -7.8226707008374E-05
(PID.TID 0000.0001) %MON forcing_empmr_mean           =   9.4067939086955E-07
(PID.TID 0000.0001) %MON forcing_empmr_sd             =   2.7995335629189E-05
(PID.TID 0000.0001) %MON forcing_empmr_del2           =   3.5444699729804E-07
(PID.TID 0000.0001) %MON forcing_fu_max               =   2.9908689260483E-01
(PID.TID 0000.0001) %MON forcing_fu_min               =  -2.0909265577793E-01
(PID.TID 0000.0001) %MON forcing_fu_mean              =   1.7413540754760E-02
(PID.TID 0000.0001) %MON forcing_fu_sd                =   9.1865449563120E-02
(PID.TID 0000.0001) %MON forcing_fu_del2              =   7.1428703033322E-04
(PID.TID 0000.0001) %MON forcing_fv_max               =   1.9313710530599E-01
(PID.TID 0000.0001) %MON forcing_fv_min               =  -1.8699165980021E-01
(PID.TID 0000.0001) %MON forcing_fv_mean              =  -6.9556813140996E-03
(PID.TID 0000.0001) %MON forcing_fv_sd                =   4.4663298961799E-02
(PID.TID 0000.0001) %MON forcing_fv_del2              =   5.1218138954002E-04
(PID.TID 0000.0001) %MON trAdv_CFL_u_max              =   4.9945899241759E-02
(PID.TID 0000.0001) %MON trAdv_CFL_v_max              =   2.4381165200914E-02
(PID.TID 0000.0001) %MON trAdv_CFL_w_max              =   2.9962633266325E-02
(PID.TID 0000.0001) %MON advcfl_uvel_max              =   5.0979181948126E-02
(PID.TID 0000.0001) %MON advcfl_vvel_max              =   2.1575721685164E-02
(PID.TID 0000.0001) %MON advcfl_wvel_max              =   3.4435457857189E-02
(PID.TID 0000.0001) %MON advcfl_W_hf_max              =   4.1322549428627E-02
(PID.TID 0000.0001) %MON pe_b_mean                    =   4.0565364529781E-04
(PID.TID 0000.0001) %MON ke_max                       =   1.3207070484006E-02
(PID.TID 0000.0001) %MON ke_mean                      =   1.2272100806994E-04
(PID.TID 0000.0001) %MON ke_vol                       =   1.3226782436723E+18
(PID.TID 0000.0001) %MON vort_r_min                   =  -4.5903046258680E-07
(PID.TID 0000.0001) %MON vort_r_max                   =   3.9749774778453E-07
(PID.TID 0000.0001) %MON vort_a_mean                  =  -2.5274807105109E-05
(PID.TID 0000.0001) %MON vort_a_sd                    =   7.3604558843517E-05
(PID.TID 0000.0001) %MON vort_p_mean                  =  -3.1845655431128E-05
(PID.TID 0000.0001) %MON vort_p_sd                    =   1.3162444082130E-04
(PID.TID 0000.0001) %MON surfExpan_theta_mean         =   2.1558667619877E-07
(PID.TID 0000.0001) %MON surfExpan_salt_mean          =   3.4388121853867E-08
(PID.TID 0000.0001) // =======================================================
(PID.TID 0000.0001) // End MONITOR dynamic field statistics
(PID.TID 0000.0001) // =======================================================
 EXTERNAL_FIELDS_LOAD,        42 : iP,iLd,i0,i1=    1    2    1    2 ; Wght=  0.1000000000  0.9000000000
 EXTERNAL_FIELDS_LOAD: (fu0,1),fu,fv= -3.5633E-02 -1.4435E-02 -1.6555E-02 -2.1598E-02
 EXTERNAL_FIELDS_LOAD: SST,SSS,Q,E-P= -3.8283E-01  3.4450E+01  2.4301E+02  8.7032E-06
DEBUG_STATS_RL:          Uvel (THERMODYNAMICS)  min= -1.41482438706039E-01
DEBUG_STATS_RL:          Uvel (THERMODYNAMICS)  max=  1.54232037609561E-01
DEBUG_STATS_RL:          Uvel (THERMODYNAMICS) mean=  4.28038471078627E-03
DEBUG_STATS_RL:          Uvel (THERMODYNAMICS) S.D.=  2.35116468845767E-02
DEBUG_STATS_RL:          Vvel (THERMODYNAMICS)  min= -1.11052510310340E-01
DEBUG_STATS_RL:          Vvel (THERMODYNAMICS)  max=  1.07297104977836E-01
DEBUG_STATS_RL:          Vvel (THERMODYNAMICS) mean=  3.21984341561871E-04
DEBUG_STATS_RL:          Vvel (THERMODYNAMICS) S.D.=  1.36982092291541E-02
DEBUG_STATS_RL:          Wvel (THERMODYNAMICS)  min= -1.16257801772257E-04
DEBUG_STATS_RL:          Wvel (THERMODYNAMICS)  max=  1.00652216867991E-04
DEBUG_STATS_RL:          Wvel (THERMODYNAMICS) mean= -2.86223018521854E-07
DEBUG_STATS_RL:          Wvel (THERMODYNAMICS) S.D.=  1.16835432847638E-05
DEBUG_STATS_RL:         Theta (THERMODYNAMICS)  min= -1.99449889952010E+00
DEBUG_STATS_RL:         Theta (THERMODYNAMICS)  max=  3.02489120525093E+01
DEBUG_STATS_RL:         Theta (THERMODYNAMICS) mean=  3.21578788829538E+00
DEBUG_STATS_RL:         Theta (THERMODYNAMICS) S.D.=  5.86639018180224E+00
DEBUG_STATS_RL:          Salt (THERMODYNAMICS)  min= -1.90819582357449E-17
DEBUG_STATS_RL:          Salt (THERMODYNAMICS)  max=  3.74552681309241E+01
DEBUG_STATS_RL:          Salt (THERMODYNAMICS) mean=  1.88448503151974E+01
DEBUG_STATS_RL:          Salt (THERMODYNAMICS) S.D.=  1.73003717160672E+01
DEBUG_STATS_RL:         GtNm1 (THERMODYNAMICS)  min= -4.10126775316835E-06
DEBUG_STATS_RL:         GtNm1 (THERMODYNAMICS)  max=  2.92228713984915E-06
DEBUG_STATS_RL:         GtNm1 (THERMODYNAMICS) mean=  1.23390015890563E-08
DEBUG_STATS_RL:         GtNm1 (THERMODYNAMICS) S.D.=  2.00302297292653E-07
DEBUG_STATS_RL:         GsNm1 (THERMODYNAMICS)  min= -4.83903996789160E-07
DEBUG_STATS_RL:         GsNm1 (THERMODYNAMICS)  max=  3.21129208262758E-07
DEBUG_STATS_RL:         GsNm1 (THERMODYNAMICS) mean=  1.78643745940607E-10
DEBUG_STATS_RL:         GsNm1 (THERMODYNAMICS) S.D.=  1.83258127039316E-08
DEBUG_STATS_RL:                EtaN (DYNAMICS)  min= -1.61962936562019E+00
DEBUG_STATS_RL:                EtaN (DYNAMICS)  max=  8.24039719178737E-01
DEBUG_STATS_RL:                EtaN (DYNAMICS) mean= -1.70835045640893E-01
DEBUG_STATS_RL:                EtaN (DYNAMICS) S.D.=  6.52191937092275E-01
DEBUG_STATS_RL:                Uvel (DYNAMICS)  min= -1.41482438706039E-01
DEBUG_STATS_RL:                Uvel (DYNAMICS)  max=  1.54232037609561E-01
DEBUG_STATS_RL:                Uvel (DYNAMICS) mean=  4.28038471078627E-03
DEBUG_STATS_RL:                Uvel (DYNAMICS) S.D.=  2.35116468845767E-02
DEBUG_STATS_RL:                Vvel (DYNAMICS)  min= -1.11052510310340E-01
DEBUG_STATS_RL:                Vvel (DYNAMICS)  max=  1.07297104977836E-01
DEBUG_STATS_RL:                Vvel (DYNAMICS) mean=  3.21984341561871E-04
DEBUG_STATS_RL:                Vvel (DYNAMICS) S.D.=  1.36982092291541E-02
DEBUG_STATS_RL:                Wvel (DYNAMICS)  min= -1.16257801772257E-04
DEBUG_STATS_RL:                Wvel (DYNAMICS)  max=  1.00652216867991E-04
DEBUG_STATS_RL:                Wvel (DYNAMICS) mean= -2.86223018521854E-07
DEBUG_STATS_RL:                Wvel (DYNAMICS) S.D.=  1.16835432847638E-05
DEBUG_STATS_RL:               Theta (DYNAMICS)  min= -1.99449889952010E+00
DEBUG_STATS_RL:               Theta (DYNAMICS)  max=  3.02489120525093E+01
DEBUG_STATS_RL:               Theta (DYNAMICS) mean=  3.21578788829538E+00
DEBUG_STATS_RL:               Theta (DYNAMICS) S.D.=  5.86639018180224E+00
DEBUG_STATS_RL:                Salt (DYNAMICS)  min= -1.90819582357449E-17
DEBUG_STATS_RL:                Salt (DYNAMICS)  max=  3.74552681309241E+01
DEBUG_STATS_RL:                Salt (DYNAMICS) mean=  1.88448503151974E+01
DEBUG_STATS_RL:                Salt (DYNAMICS) S.D.=  1.73003717160672E+01
DEBUG_STATS_RL:                  Gu (DYNAMICS)  min= -1.40817955737679E-01
DEBUG_STATS_RL:                  Gu (DYNAMICS)  max=  1.58775154814032E-01
DEBUG_STATS_RL:                  Gu (DYNAMICS) mean=  4.41880436775757E-03
DEBUG_STATS_RL:                  Gu (DYNAMICS) S.D.=  2.42813085356577E-02
DEBUG_STATS_RL:                  Gv (DYNAMICS)  min= -1.06647114039650E-01
DEBUG_STATS_RL:                  Gv (DYNAMICS)  max=  1.12266148031936E-01
DEBUG_STATS_RL:                  Gv (DYNAMICS) mean=  2.89259256896672E-03
DEBUG_STATS_RL:                  Gv (DYNAMICS) S.D.=  1.42032980813839E-02
DEBUG_STATS_RL:               GuNm1 (DYNAMICS)  min= -8.56195804588435E-06
DEBUG_STATS_RL:               GuNm1 (DYNAMICS)  max=  8.41761048994227E-06
DEBUG_STATS_RL:               GuNm1 (DYNAMICS) mean= -1.66331175534646E-08
DEBUG_STATS_RL:               GuNm1 (DYNAMICS) S.D.=  1.16839411044384E-06
DEBUG_STATS_RL:               GvNm1 (DYNAMICS)  min= -9.84219231330571E-06
DEBUG_STATS_RL:               GvNm1 (DYNAMICS)  max=  1.63292517838899E-05
DEBUG_STATS_RL:               GvNm1 (DYNAMICS) mean=  7.48954066141807E-07
DEBUG_STATS_RL:               GvNm1 (DYNAMICS) S.D.=  2.58941816512808E-06
DEBUG_STATS_RL:               GtNm1 (DYNAMICS)  min= -4.10126775316835E-06
DEBUG_STATS_RL:               GtNm1 (DYNAMICS)  max=  2.92228713984915E-06
DEBUG_STATS_RL:               GtNm1 (DYNAMICS) mean=  1.23390015890563E-08
DEBUG_STATS_RL:               GtNm1 (DYNAMICS) S.D.=  2.00302297292653E-07
DEBUG_STATS_RL:               GsNm1 (DYNAMICS)  min= -4.83903996789160E-07
DEBUG_STATS_RL:               GsNm1 (DYNAMICS)  max=  3.21129208262758E-07
DEBUG_STATS_RL:               GsNm1 (DYNAMICS) mean=  1.78643745940607E-10
DEBUG_STATS_RL:               GsNm1 (DYNAMICS) S.D.=  1.83258127039316E-08
DEBUG_STATS_RL:    cg2d_b (SOLVE_FOR_PRESSURE)  min= -1.95259194335144E+04
DEBUG_STATS_RL:    cg2d_b (SOLVE_FOR_PRESSURE)  max=  2.20985487481909E+04
DEBUG_STATS_RL:    cg2d_b (SOLVE_FOR_PRESSURE) mean=  3.10205350151847E+00
DEBUG_STATS_RL:    cg2d_b (SOLVE_FOR_PRESSURE) S.D.=  3.60484446416654E+03
 cg2d: Sum(rhs),rhsMax =   3.24964953031369E-01  1.45149184900379E+00
(PID.TID 0000.0001)  cg2d: iter=     1 ; resid.=  9.20956699574613E-02
(PID.TID 0000.0001)  cg2d: iter=     2 ; resid.=  4.25695680421300E-02
(PID.TID 0000.0001)  cg2d: iter=     3 ; resid.=  3.41332608647729E-02
(PID.TID 0000.0001)  cg2d: iter=     4 ; resid.=  3.41064372728146E-02
(PID.TID 0000.0001)  cg2d: iter=     5 ; resid.=  3.17538414436499E-02
(PID.TID 0000.0001)  cg2d: iter=     6 ; resid.=  2.77223426785329E-02
(PID.TID 0000.0001)  cg2d: iter=     7 ; resid.=  2.22161372796436E-02
(PID.TID 0000.0001)  cg2d: iter=     8 ; resid.=  2.00215950410355E-02
(PID.TID 0000.0001)  cg2d: iter=     9 ; resid.=  1.86703972351679E-02
(PID.TID 0000.0001)  cg2d: iter=    10 ; resid.=  1.77936580166995E-02
(PID.TID 0000.0001)  cg2d: iter=    11 ; resid.=  1.56462462876382E-02
(PID.TID 0000.0001)  cg2d: iter=    12 ; resid.=  1.24238280426512E-02
(PID.TID 0000.0001)  cg2d: iter=    13 ; resid.=  9.64639251865432E-03
(PID.TID 0000.0001)  cg2d: iter=    14 ; resid.=  7.46715649448108E-03
(PID.TID 0000.0001)  cg2d: iter=    15 ; resid.=  5.99262491339240E-03
(PID.TID 0000.0001)  cg2d: iter=    16 ; resid.=  5.11727849993472E-03
(PID.TID 0000.0001)  cg2d: iter=    17 ; resid.=  4.89148037308040E-03
(PID.TID 0000.0001)  cg2d: iter=    18 ; resid.=  4.07006485067250E-03
(PID.TID 0000.0001)  cg2d: iter=    19 ; resid.=  3.24356139586687E-03
(PID.TID 0000.0001)  cg2d: iter=    20 ; resid.=  2.60306648713614E-03
(PID.TID 0000.0001)  cg2d: iter=    21 ; resid.=  2.02607209260030E-03
(PID.TID 0000.0001)  cg2d: iter=    22 ; resid.=  1.76139609620305E-03
(PID.TID 0000.0001)  cg2d: iter=    23 ; resid.=  1.53257347679882E-03
(PID.TID 0000.0001)  cg2d: iter=    24 ; resid.=  1.23924013810022E-03
(PID.TID 0000.0001)  cg2d: iter=    25 ; resid.=  9.79384770235118E-04
(PID.TID 0000.0001)  cg2d: iter=    26 ; resid.=  7.87224980269700E-04
(PID.TID 0000.0001)  cg2d: iter=    27 ; resid.=  6.86781282136966E-04
(PID.TID 0000.0001)  cg2d: iter=    28 ; resid.=  6.38162772644756E-04
(PID.TID 0000.0001)  cg2d: iter=    29 ; resid.=  5.72662658908149E-04
(PID.TID 0000.0001)  cg2d: iter=    30 ; resid.=  4.61372342462798E-04
(PID.TID 0000.0001)  cg2d: iter=    31 ; resid.=  3.70602449304459E-04
(PID.TID 0000.0001)  cg2d: iter=    32 ; resid.=  3.04477084435204E-04
(PID.TID 0000.0001)  cg2d: iter=    33 ; resid.=  2.65709197154331E-04
(PID.TID 0000.0001)  cg2d: iter=    34 ; resid.=  2.11327406467425E-04
(PID.TID 0000.0001)  cg2d: iter=    35 ; resid.=  1.65195699199215E-04
(PID.TID 0000.0001)  cg2d: iter=    36 ; resid.=  1.41341970344916E-04
(PID.TID 0000.0001)  cg2d: iter=    37 ; resid.=  1.20130412254060E-04
(PID.TID 0000.0001)  cg2d: iter=    38 ; resid.=  1.01192954986959E-04
(PID.TID 0000.0001)  cg2d: iter=    39 ; resid.=  8.48612757744544E-05
(PID.TID 0000.0001)  cg2d: iter=    40 ; resid.=  7.21354049740821E-05
(PID.TID 0000.0001)  cg2d: iter=    41 ; resid.=  6.58541435792652E-05
(PID.TID 0000.0001)  cg2d: iter=    42 ; resid.=  5.62986413400741E-05
(PID.TID 0000.0001)  cg2d: iter=    43 ; resid.=  4.54404574845722E-05
(PID.TID 0000.0001)  cg2d: iter=    44 ; resid.=  3.65025743494053E-05
(PID.TID 0000.0001)  cg2d: iter=    45 ; resid.=  2.91542655237198E-05
(PID.TID 0000.0001)  cg2d: iter=    46 ; resid.=  2.21974794809742E-05
(PID.TID 0000.0001)  cg2d: iter=    47 ; resid.=  1.62406264246029E-05
(PID.TID 0000.0001)  cg2d: iter=    48 ; resid.=  1.27461247775902E-05
(PID.TID 0000.0001)  cg2d: iter=    49 ; resid.=  1.04619835648223E-05
(PID.TID 0000.0001)  cg2d: iter=    50 ; resid.=  8.75962027635571E-06
(PID.TID 0000.0001)  cg2d: iter=    51 ; resid.=  7.10110503575454E-06
(PID.TID 0000.0001)  cg2d: iter=    52 ; resid.=  5.94158813993083E-06
(PID.TID 0000.0001)  cg2d: iter=    53 ; resid.=  5.27377439872555E-06
(PID.TID 0000.0001)  cg2d: iter=    54 ; resid.=  4.50897108916418E-06
(PID.TID 0000.0001)  cg2d: iter=    55 ; resid.=  3.60417348167951E-06
(PID.TID 0000.0001)  cg2d: iter=    56 ; resid.=  2.93686424120477E-06
(PID.TID 0000.0001)  cg2d: iter=    57 ; resid.=  2.59798643831457E-06
(PID.TID 0000.0001)  cg2d: iter=    58 ; resid.=  2.23058126007284E-06
(PID.TID 0000.0001)  cg2d: iter=    59 ; resid.=  1.75029788446517E-06
(PID.TID 0000.0001)  cg2d: iter=    60 ; resid.=  1.29411665116182E-06
(PID.TID 0000.0001)  cg2d: iter=    61 ; resid.=  1.09143755292462E-06
(PID.TID 0000.0001)  cg2d: iter=    62 ; resid.=  1.00739816356955E-06
(PID.TID 0000.0001)  cg2d: iter=    63 ; resid.=  8.34857858648106E-07
(PID.TID 0000.0001)  cg2d: iter=    64 ; resid.=  7.08891839638319E-07
(PID.TID 0000.0001)  cg2d: iter=    65 ; resid.=  5.66830864315010E-07
(PID.TID 0000.0001)  cg2d: iter=    66 ; resid.=  4.66258884615194E-07
(PID.TID 0000.0001)  cg2d: iter=    67 ; resid.=  3.77949499251636E-07
(PID.TID 0000.0001)  cg2d: iter=    68 ; resid.=  2.95546206756291E-07
(PID.TID 0000.0001)  cg2d: iter=    69 ; resid.=  2.34040302419537E-07
(PID.TID 0000.0001)  cg2d: iter=    70 ; resid.=  1.92676114972904E-07
(PID.TID 0000.0001)  cg2d: iter=    71 ; resid.=  1.62555040111807E-07
(PID.TID 0000.0001)  cg2d: iter=    72 ; resid.=  1.36439372280836E-07
(PID.TID 0000.0001)  cg2d: iter=    73 ; resid.=  1.18588276567712E-07
(PID.TID 0000.0001)  cg2d: iter=    74 ; resid.=  9.94635891198274E-08
(PID.TID 0000.0001)  cg2d: iter=    75 ; resid.=  8.16164225601596E-08
(PID.TID 0000.0001)  cg2d: iter=    76 ; resid.=  6.40259821537820E-08
(PID.TID 0000.0001)  cg2d: iter=    77 ; resid.=  5.08201661565020E-08
(PID.TID 0000.0001)  cg2d: iter=    78 ; resid.=  4.22953554093474E-08
(PID.TID 0000.0001)  cg2d: iter=    79 ; resid.=  3.70276018142967E-08
(PID.TID 0000.0001)  cg2d: iter=    80 ; resid.=  3.07915752639802E-08
(PID.TID 0000.0001)  cg2d: iter=    81 ; resid.=  2.47316694762620E-08
(PID.TID 0000.0001)  cg2d: iter=    82 ; resid.=  1.89720612822528E-08
(PID.TID 0000.0001)  cg2d: iter=    83 ; resid.=  1.43273713602477E-08
(PID.TID 0000.0001)  cg2d: iter=    84 ; resid.=  1.07903228005286E-08
(PID.TID 0000.0001)  cg2d: iter=    85 ; resid.=  8.18477765997854E-09
(PID.TID 0000.0001)  cg2d: iter=    86 ; resid.=  6.02651165770597E-09
(PID.TID 0000.0001)  cg2d: iter=    87 ; resid.=  4.72992570298745E-09
(PID.TID 0000.0001)  cg2d: iter=    88 ; resid.=  3.56422092774454E-09
(PID.TID 0000.0001)  cg2d: iter=    89 ; resid.=  2.83650098937631E-09
(PID.TID 0000.0001)  cg2d: iter=    90 ; resid.=  2.31288319123381E-09
(PID.TID 0000.0001)  cg2d: iter=    91 ; resid.=  1.93473728595920E-09
(PID.TID 0000.0001)  cg2d: iter=    92 ; resid.=  1.57624467680142E-09
(PID.TID 0000.0001)  cg2d: iter=    93 ; resid.=  1.19782973731807E-09
(PID.TID 0000.0001)  cg2d: iter=    94 ; resid.=  8.48598181777558E-10
(PID.TID 0000.0001)  cg2d: iter=    95 ; resid.=  6.18814800268932E-10
(PID.TID 0000.0001)  cg2d: iter=    96 ; resid.=  4.90454842666754E-10
(PID.TID 0000.0001)  cg2d: iter=    97 ; resid.=  3.94018936439248E-10
(PID.TID 0000.0001)  cg2d: iter=    98 ; resid.=  2.93733535658852E-10
(PID.TID 0000.0001)  cg2d: iter=    99 ; resid.=  2.01308513917716E-10
(PID.TID 0000.0001)  cg2d: iter=   100 ; resid.=  1.54066431398103E-10
(PID.TID 0000.0001)  cg2d: iter=   101 ; resid.=  1.24930566138527E-10
(PID.TID 0000.0001)  cg2d: iter=   102 ; resid.=  1.02967099220659E-10
(PID.TID 0000.0001)  cg2d: iter=   103 ; resid.=  7.99414407125832E-11
(PID.TID 0000.0001)  cg2d: iter=   104 ; resid.=  6.61647524744183E-11
(PID.TID 0000.0001)  cg2d: iter=   105 ; resid.=  5.84738336476142E-11
(PID.TID 0000.0001)  cg2d: iter=   106 ; resid.=  4.91828573425369E-11
(PID.TID 0000.0001)  cg2d: iter=   107 ; resid.=  3.89098654266009E-11
(PID.TID 0000.0001)  cg2d: iter=   108 ; resid.=  3.16924300866379E-11
(PID.TID 0000.0001)  cg2d: iter=   109 ; resid.=  2.77912488866715E-11
(PID.TID 0000.0001)  cg2d: iter=   110 ; resid.=  2.20488795985913E-11
(PID.TID 0000.0001)  cg2d: iter=   111 ; resid.=  1.81325190206996E-11
(PID.TID 0000.0001)  cg2d: iter=   112 ; resid.=  1.56221596920241E-11
(PID.TID 0000.0001)  cg2d: iter=   113 ; resid.=  1.29731889591023E-11
(PID.TID 0000.0001)  cg2d: iter=   114 ; resid.=  9.96877838483215E-12
(PID.TID 0000.0001)  cg2d: iter=   115 ; resid.=  7.31515654775806E-12
(PID.TID 0000.0001)  cg2d: iter=   116 ; resid.=  5.11583748349566E-12
(PID.TID 0000.0001)  cg2d: iter=   117 ; resid.=  4.08022332102643E-12
(PID.TID 0000.0001)  cg2d: iter=   118 ; resid.=  3.25045360781179E-12
(PID.TID 0000.0001)  cg2d: iter=   119 ; resid.=  2.52615357388665E-12
(PID.TID 0000.0001)  cg2d: iter=   120 ; resid.=  1.94461692313562E-12
(PID.TID 0000.0001)  cg2d: iter=   121 ; resid.=  1.51150403891337E-12
(PID.TID 0000.0001)  cg2d: iter=   122 ; resid.=  1.17079625357672E-12
(PID.TID 0000.0001)  cg2d: iter=   123 ; resid.=  8.72304839603087E-13
(PID.TID 0000.0001)  cg2d: iter=   124 ; resid.=  6.39916771811831E-13
(PID.TID 0000.0001)  cg2d: iter=   125 ; resid.=  4.87745582885026E-13
(PID.TID 0000.0001)  cg2d: iter=   126 ; resid.=  3.72693442555759E-13
(PID.TID 0000.0001)  cg2d: iter=   127 ; resid.=  2.48935607758465E-13
(PID.TID 0000.0001)  cg2d: iter=   128 ; resid.=  1.70273661071043E-13
(PID.TID 0000.0001)  cg2d: iter=   129 ; resid.=  1.22425079866566E-13
(PID.TID 0000.0001)  cg2d: iter=   130 ; resid.=  9.18593167359355E-14
DEBUG_STATS_RL:    cg2d_x (SOLVE_FOR_PRESSURE)  min= -1.60305341062141E+01
DEBUG_STATS_RL:    cg2d_x (SOLVE_FOR_PRESSURE)  max=  8.05954770547268E+00
DEBUG_STATS_RL:    cg2d_x (SOLVE_FOR_PRESSURE) mean= -1.68108119494196E+00
DEBUG_STATS_RL:    cg2d_x (SOLVE_FOR_PRESSURE) S.D.=  6.43298642937279E+00
(PID.TID 0000.0001)      cg2d_init_res =   3.57815934041212E-01
(PID.TID 0000.0001)      cg2d_iters(min,last) =      -1     130
(PID.TID 0000.0001)      cg2d_last_res =   9.18593167359355E-14
(PID.TID 0000.0001) // =======================================================
(PID.TID 0000.0001) // Begin MONITOR dynamic field statistics
(PID.TID 0000.0001) // =======================================================
(PID.TID 0000.0001) %MON time_tsnumber                =                    43
(PID.TID 0000.0001) %MON time_secondsf                =   3.7152000000000E+06
(PID.TID 0000.0001) %MON dynstat_eta_max              =   8.2156449597066E-01
(PID.TID 0000.0001) %MON dynstat_eta_min              =  -1.6341013360057E+00
(PID.TID 0000.0001) %MON dynstat_eta_mean             =  -3.2366081868989E-03
(PID.TID 0000.0001) %MON dynstat_eta_sd               =   5.6591053979699E-01
(PID.TID 0000.0001) %MON dynstat_eta_del2             =   2.1623399103743E-03
(PID.TID 0000.0001) %MON dynstat_uvel_max             =   1.5763890588255E-01
(PID.TID 0000.0001) %MON dynstat_uvel_min             =  -1.4059346751337E-01
(PID.TID 0000.0001) %MON dynstat_uvel_mean            =   1.6535067674965E-03
(PID.TID 0000.0001) %MON dynstat_uvel_sd              =   1.4118523249137E-02
(PID.TID 0000.0001) %MON dynstat_uvel_del2            =   8.4979118447982E-05
(PID.TID 0000.0001) %MON dynstat_vvel_max             =   1.1117665830119E-01
(PID.TID 0000.0001) %MON dynstat_vvel_min             =  -1.1011067102488E-01
(PID.TID 0000.0001) %MON dynstat_vvel_mean            =   5.4486371888963E-05
(PID.TID 0000.0001) %MON dynstat_vvel_sd              =   8.7534020519262E-03
(PID.TID 0000.0001) %MON dynstat_vvel_del2            =   7.5508951537089E-05
(PID.TID 0000.0001) %MON dynstat_wvel_max             =   1.0305761099461E-04
(PID.TID 0000.0001) %MON dynstat_wvel_min             =  -1.1257746043521E-04
(PID.TID 0000.0001) %MON dynstat_wvel_mean            =  -3.6137122002599E-23
(PID.TID 0000.0001) %MON dynstat_wvel_sd              =   1.3300418597957E-05
(PID.TID 0000.0001) %MON dynstat_wvel_del2            =   1.3511719060458E-07
(PID.TID 0000.0001) %MON dynstat_theta_max            =   3.0248912052509E+01
(PID.TID 0000.0001) %MON dynstat_theta_min            =  -1.9944988995201E+00
(PID.TID 0000.0001) %MON dynstat_theta_mean           =   3.6222027230988E+00
(PID.TID 0000.0001) %MON dynstat_theta_sd             =   4.4199123633368E+00
(PID.TID 0000.0001) %MON dynstat_theta_del2           =   4.7281864260799E-03
(PID.TID 0000.0001) %MON dynstat_salt_max             =   3.7455268130924E+01
(PID.TID 0000.0001) %MON dynstat_salt_min             =   2.9832045458931E+01
(PID.TID 0000.0001) %MON dynstat_salt_mean            =   3.4717980052200E+01
(PID.TID 0000.0001) %MON dynstat_salt_sd              =   2.9632908278765E-01
(PID.TID 0000.0001) %MON dynstat_salt_del2            =   9.8464564290277E-04
(PID.TID 0000.0001) %MON dynstat_sst_max              =   3.0248912052509E+01
(PID.TID 0000.0001) %MON dynstat_sst_min              =  -1.9944988995201E+00
(PID.TID 0000.0001) %MON dynstat_sst_mean             =   1.8868660616447E+01
(PID.TID 0000.0001) %MON dynstat_sst_sd               =   9.0098700777545E+00
(PID.TID 0000.0001) %MON dynstat_sst_del2             =   2.7022911521845E-02
(PID.TID 0000.0001) %MON dynstat_sss_max              =   3.7431513949467E+01
(PID.TID 0000.0001) %MON dynstat_sss_min              =   2.9832045458931E+01
(PID.TID 0000.0001) %MON dynstat_sss_mean             =   3.4844071222815E+01
(PID.TID 0000.0001) %MON dynstat_sss_sd               =   9.7700290063054E-01
(PID.TID 0000.0001) %MON dynstat_sss_del2             =   7.8595279486916E-03
(PID.TID 0000.0001) %MON forcing_qnet_max             =   3.6251486816406E+02
(PID.TID 0000.0001) %MON forcing_qnet_min             =  -1.7355252685547E+02
(PID.TID 0000.0001) %MON forcing_qnet_mean            =  -1.4219978481153E+01
(PID.TID 0000.0001) %MON forcing_qnet_sd              =   8.2371696760825E+01
(PID.TID 0000.0001) %MON forcing_qnet_del2            =   9.5171455231292E-01
(PID.TID 0000.0001) %MON forcing_qsw_max              =   0.0000000000000E+00
(PID.TID 0000.0001) %MON forcing_qsw_min              =   0.0000000000000E+00
(PID.TID 0000.0001) %MON forcing_qsw_mean             =   0.0000000000000E+00
(PID.TID 0000.0001) %MON forcing_qsw_sd               =   0.0000000000000E+00
(PID.TID 0000.0001) %MON forcing_qsw_del2             =   0.0000000000000E+00
(PID.TID 0000.0001) %MON forcing_empmr_max            =   7.3693816204923E-05
(PID.TID 0000.0001) %MON forcing_empmr_min            =  -7.8306351269930E-05
(PID.TID 0000.0001) %MON forcing_empmr_mean           =   9.4136178812951E-07
(PID.TID 0000.0001) %MON forcing_empmr_sd             =   2.7989109089205E-05
(PID.TID 0000.0001) %MON forcing_empmr_del2           =   3.5476172595568E-07
(PID.TID 0000.0001) %MON forcing_fu_max               =   3.0047405064106E-01
(PID.TID 0000.0001) %MON forcing_fu_min               =  -2.1116244494915E-01
(PID.TID 0000.0001) %MON forcing_fu_mean              =   1.7467840970229E-02
(PID.TID 0000.0001) %MON forcing_fu_sd                =   9.2128273679121E-02
(PID.TID 0000.0001) %MON forcing_fu_del2              =   7.2179649985701E-04
(PID.TID 0000.0001) %MON forcing_fv_max               =   1.9524907022715E-01
(PID.TID 0000.0001) %MON forcing_fv_min               =  -1.9016355872154E-01
(PID.TID 0000.0001) %MON forcing_fv_mean              =  -7.0209422208148E-03
(PID.TID 0000.0001) %MON forcing_fv_sd                =   4.4736678888232E-02
(PID.TID 0000.0001) %MON forcing_fv_del2              =   5.1897923714387E-04
(PID.TID 0000.0001) %MON trAdv_CFL_u_max              =   5.0989536184589E-02
(PID.TID 0000.0001) %MON trAdv_CFL_v_max              =   2.5369662831640E-02
(PID.TID 0000.0001) %MON trAdv_CFL_w_max              =   2.9712844879913E-02
(PID.TID 0000.0001) %MON advcfl_uvel_max              =   5.1375543210438E-02
(PID.TID 0000.0001) %MON advcfl_vvel_max              =   2.1599841648693E-02
(PID.TID 0000.0001) %MON advcfl_wvel_max              =   3.5765975487608E-02
(PID.TID 0000.0001) %MON advcfl_W_hf_max              =   4.2919170585130E-02
(PID.TID 0000.0001) %MON pe_b_mean                    =   4.0981794466352E-04
(PID.TID 0000.0001) %MON ke_max                       =   1.3044457201858E-02
(PID.TID 0000.0001) %MON ke_mean                      =   1.2620232639297E-04
(PID.TID 0000.0001) %MON ke_vol                       =   1.3226782436723E+18
(PID.TID 0000.0001) %MON vort_r_min                   =  -4.6592242234806E-07
(PID.TID 0000.0001) %MON vort_r_max                   =   3.9164809029321E-07
(PID.TID 0000.0001) %MON vort_a_mean                  =  -2.5274807103415E-05
(PID.TID 0000.0001) %MON vort_a_sd                    =   7.3604571547765E-05
(PID.TID 0000.0001) %MON vort_p_mean                  =  -3.1845655428993E-05
(PID.TID 0000.0001) %MON vort_p_sd                    =   1.3162441660035E-04
(PID.TID 0000.0001) %MON surfExpan_theta_mean         =   2.3537865893686E-07
(PID.TID 0000.0001) %MON surfExpan_salt_mean          =   2.8211096521403E-08
(PID.TID 0000.0001) // =======================================================
(PID.TID 0000.0001) // End MONITOR dynamic field statistics
(PID.TID 0000.0001) // =======================================================
 EXTERNAL_FIELDS_LOAD,        43 : iP,iLd,i0,i1=    1    2    1    2 ; Wght=  0.0666666667  0.9333333333
 EXTERNAL_FIELDS_LOAD: (fu0,1),fu,fv= -3.5633E-02 -1.4435E-02 -1.5848E-02 -2.0277E-02
 EXTERNAL_FIELDS_LOAD: SST,SSS,Q,E-P= -4.3250E-01  3.4441E+01  2.4217E+02  8.5945E-06
DEBUG_STATS_RL:          Uvel (THERMODYNAMICS)  min= -1.40593467513368E-01
DEBUG_STATS_RL:          Uvel (THERMODYNAMICS)  max=  1.57638905882551E-01
DEBUG_STATS_RL:          Uvel (THERMODYNAMICS) mean=  4.59269083656575E-03
DEBUG_STATS_RL:          Uvel (THERMODYNAMICS) S.D.=  2.39531305615047E-02
DEBUG_STATS_RL:          Vvel (THERMODYNAMICS)  min= -1.10110671024876E-01
DEBUG_STATS_RL:          Vvel (THERMODYNAMICS)  max=  1.11176658301194E-01
DEBUG_STATS_RL:          Vvel (THERMODYNAMICS) mean=  5.18815601260200E-04
DEBUG_STATS_RL:          Vvel (THERMODYNAMICS) S.D.=  1.37544563891072E-02
DEBUG_STATS_RL:          Wvel (THERMODYNAMICS)  min= -1.12577460435208E-04
DEBUG_STATS_RL:          Wvel (THERMODYNAMICS)  max=  1.03057610994606E-04
DEBUG_STATS_RL:          Wvel (THERMODYNAMICS) mean= -2.40746154309060E-07
DEBUG_STATS_RL:          Wvel (THERMODYNAMICS) S.D.=  1.15881257783983E-05
DEBUG_STATS_RL:         Theta (THERMODYNAMICS)  min= -1.99323369170658E+00
DEBUG_STATS_RL:         Theta (THERMODYNAMICS)  max=  3.02686634419480E+01
DEBUG_STATS_RL:         Theta (THERMODYNAMICS) mean=  3.21630321645712E+00
DEBUG_STATS_RL:         Theta (THERMODYNAMICS) S.D.=  5.86719556887331E+00
DEBUG_STATS_RL:          Salt (THERMODYNAMICS)  min= -1.90819582357449E-17
DEBUG_STATS_RL:          Salt (THERMODYNAMICS)  max=  3.74555300492589E+01
DEBUG_STATS_RL:          Salt (THERMODYNAMICS) mean=  1.88448641517203E+01
DEBUG_STATS_RL:          Salt (THERMODYNAMICS) S.D.=  1.73003849070156E+01
DEBUG_STATS_RL:         GtNm1 (THERMODYNAMICS)  min= -4.27522357766798E-06
DEBUG_STATS_RL:         GtNm1 (THERMODYNAMICS)  max=  2.74561152944171E-06
DEBUG_STATS_RL:         GtNm1 (THERMODYNAMICS) mean=  1.15607998049648E-08
DEBUG_STATS_RL:         GtNm1 (THERMODYNAMICS) S.D.=  1.98989253421371E-07
DEBUG_STATS_RL:         GsNm1 (THERMODYNAMICS)  min= -4.26068589428583E-07
DEBUG_STATS_RL:         GsNm1 (THERMODYNAMICS)  max=  3.00892263144400E-07
DEBUG_STATS_RL:         GsNm1 (THERMODYNAMICS) mean=  2.12500565689719E-10
DEBUG_STATS_RL:         GsNm1 (THERMODYNAMICS) S.D.=  1.84092548646788E-08
DEBUG_STATS_RL:                EtaN (DYNAMICS)  min= -1.63410133600566E+00
DEBUG_STATS_RL:                EtaN (DYNAMICS)  max=  8.21564495970664E-01
DEBUG_STATS_RL:                EtaN (DYNAMICS) mean= -1.71364036181648E-01
DEBUG_STATS_RL:                EtaN (DYNAMICS) S.D.=  6.55758045807626E-01
DEBUG_STATS_RL:                Uvel (DYNAMICS)  min= -1.40593467513368E-01
DEBUG_STATS_RL:                Uvel (DYNAMICS)  max=  1.57638905882551E-01
DEBUG_STATS_RL:                Uvel (DYNAMICS) mean=  4.59269083656575E-03
DEBUG_STATS_RL:                Uvel (DYNAMICS) S.D.=  2.39531305615047E-02
DEBUG_STATS_RL:                Vvel (DYNAMICS)  min= -1.10110671024876E-01
DEBUG_STATS_RL:                Vvel (DYNAMICS)  max=  1.11176658301194E-01
DEBUG_STATS_RL:                Vvel (DYNAMICS) mean=  5.18815601260200E-04
DEBUG_STATS_RL:                Vvel (DYNAMICS) S.D.=  1.37544563891072E-02
DEBUG_STATS_RL:                Wvel (DYNAMICS)  min= -1.12577460435208E-04
DEBUG_STATS_RL:                Wvel (DYNAMICS)  max=  1.03057610994606E-04
DEBUG_STATS_RL:                Wvel (DYNAMICS) mean= -2.40746154309060E-07
DEBUG_STATS_RL:                Wvel (DYNAMICS) S.D.=  1.15881257783983E-05
DEBUG_STATS_RL:               Theta (DYNAMICS)  min= -1.99323369170658E+00
DEBUG_STATS_RL:               Theta (DYNAMICS)  max=  3.02686634419480E+01
DEBUG_STATS_RL:               Theta (DYNAMICS) mean=  3.21630321645712E+00
DEBUG_STATS_RL:               Theta (DYNAMICS) S.D.=  5.86719556887331E+00
DEBUG_STATS_RL:                Salt (DYNAMICS)  min= -1.90819582357449E-17
DEBUG_STATS_RL:                Salt (DYNAMICS)  max=  3.74555300492589E+01
DEBUG_STATS_RL:                Salt (DYNAMICS) mean=  1.88448641517203E+01
DEBUG_STATS_RL:                Salt (DYNAMICS) S.D.=  1.73003849070156E+01
DEBUG_STATS_RL:                  Gu (DYNAMICS)  min= -1.39657066086552E-01
DEBUG_STATS_RL:                  Gu (DYNAMICS)  max=  1.64185136909311E-01
DEBUG_STATS_RL:                  Gu (DYNAMICS) mean=  4.69907515120108E-03
DEBUG_STATS_RL:                  Gu (DYNAMICS) S.D.=  2.46119047406274E-02
DEBUG_STATS_RL:                  Gv (DYNAMICS)  min= -1.05569728223911E-01
DEBUG_STATS_RL:                  Gv (DYNAMICS)  max=  1.15925761649200E-01
DEBUG_STATS_RL:                  Gv (DYNAMICS) mean=  3.11256733013942E-03
DEBUG_STATS_RL:                  Gv (DYNAMICS) S.D.=  1.44021810764267E-02
DEBUG_STATS_RL:               GuNm1 (DYNAMICS)  min= -8.68480308487528E-06
DEBUG_STATS_RL:               GuNm1 (DYNAMICS)  max=  8.47772866382557E-06
DEBUG_STATS_RL:               GuNm1 (DYNAMICS) mean= -1.57216377389048E-08
DEBUG_STATS_RL:               GuNm1 (DYNAMICS) S.D.=  1.16885105561690E-06
DEBUG_STATS_RL:               GvNm1 (DYNAMICS)  min= -9.76941011172741E-06
DEBUG_STATS_RL:               GvNm1 (DYNAMICS)  max=  1.63340353638929E-05
DEBUG_STATS_RL:               GvNm1 (DYNAMICS) mean=  7.48579666958235E-07
DEBUG_STATS_RL:               GvNm1 (DYNAMICS) S.D.=  2.58788133209172E-06
DEBUG_STATS_RL:               GtNm1 (DYNAMICS)  min= -4.27522357766798E-06
DEBUG_STATS_RL:               GtNm1 (DYNAMICS)  max=  2.74561152944171E-06
DEBUG_STATS_RL:               GtNm1 (DYNAMICS) mean=  1.15607998049648E-08
DEBUG_STATS_RL:               GtNm1 (DYNAMICS) S.D.=  1.98989253421371E-07
DEBUG_STATS_RL:               GsNm1 (DYNAMICS)  min= -4.26068589428583E-07
DEBUG_STATS_RL:               GsNm1 (DYNAMICS)  max=  3.00892263144400E-07
DEBUG_STATS_RL:               GsNm1 (DYNAMICS) mean=  2.12500565689719E-10
DEBUG_STATS_RL:               GsNm1 (DYNAMICS) S.D.=  1.84092548646788E-08
DEBUG_STATS_RL:    cg2d_b (SOLVE_FOR_PRESSURE)  min= -1.95853487146298E+04
DEBUG_STATS_RL:    cg2d_b (SOLVE_FOR_PRESSURE)  max=  2.26541348038321E+04
DEBUG_STATS_RL:    cg2d_b (SOLVE_FOR_PRESSURE) mean=  3.17742442240452E+00
DEBUG_STATS_RL:    cg2d_b (SOLVE_FOR_PRESSURE) S.D.=  3.60671602632124E+03
 cg2d: Sum(rhs),rhsMax =   3.24697350022889E-01  1.48798422867869E+00
(PID.TID 0000.0001)  cg2d: iter=     1 ; resid.=  8.97185857896999E-02
(PID.TID 0000.0001)  cg2d: iter=     2 ; resid.=  4.15652111046054E-02
(PID.TID 0000.0001)  cg2d: iter=     3 ; resid.=  3.41798304315370E-02
(PID.TID 0000.0001)  cg2d: iter=     4 ; resid.=  3.45326730815239E-02
(PID.TID 0000.0001)  cg2d: iter=     5 ; resid.=  3.19587073062870E-02
(PID.TID 0000.0001)  cg2d: iter=     6 ; resid.=  2.78540292067241E-02
(PID.TID 0000.0001)  cg2d: iter=     7 ; resid.=  2.25035489099395E-02
(PID.TID 0000.0001)  cg2d: iter=     8 ; resid.=  2.04821643771464E-02
(PID.TID 0000.0001)  cg2d: iter=     9 ; resid.=  1.90569875934545E-02
(PID.TID 0000.0001)  cg2d: iter=    10 ; resid.=  1.79249259993160E-02
(PID.TID 0000.0001)  cg2d: iter=    11 ; resid.=  1.56212363352250E-02
(PID.TID 0000.0001)  cg2d: iter=    12 ; resid.=  1.24615655550406E-02
(PID.TID 0000.0001)  cg2d: iter=    13 ; resid.=  9.76680795028296E-03
(PID.TID 0000.0001)  cg2d: iter=    14 ; resid.=  7.49260373955137E-03
(PID.TID 0000.0001)  cg2d: iter=    15 ; resid.=  6.00327744284399E-03
(PID.TID 0000.0001)  cg2d: iter=    16 ; resid.=  5.07176965011329E-03
(PID.TID 0000.0001)  cg2d: iter=    17 ; resid.=  4.75552255192025E-03
(PID.TID 0000.0001)  cg2d: iter=    18 ; resid.=  3.86713941450604E-03
(PID.TID 0000.0001)  cg2d: iter=    19 ; resid.=  3.09368790448379E-03
(PID.TID 0000.0001)  cg2d: iter=    20 ; resid.=  2.49841981284563E-03
(PID.TID 0000.0001)  cg2d: iter=    21 ; resid.=  1.95365861200128E-03
(PID.TID 0000.0001)  cg2d: iter=    22 ; resid.=  1.70844531711978E-03
(PID.TID 0000.0001)  cg2d: iter=    23 ; resid.=  1.50211411538317E-03
(PID.TID 0000.0001)  cg2d: iter=    24 ; resid.=  1.20979214525932E-03
(PID.TID 0000.0001)  cg2d: iter=    25 ; resid.=  9.49820137963020E-04
(PID.TID 0000.0001)  cg2d: iter=    26 ; resid.=  7.74757843026766E-04
(PID.TID 0000.0001)  cg2d: iter=    27 ; resid.=  7.00412752196735E-04
(PID.TID 0000.0001)  cg2d: iter=    28 ; resid.=  6.56947175486022E-04
(PID.TID 0000.0001)  cg2d: iter=    29 ; resid.=  5.88658921798046E-04
(PID.TID 0000.0001)  cg2d: iter=    30 ; resid.=  4.67902125473932E-04
(PID.TID 0000.0001)  cg2d: iter=    31 ; resid.=  3.77865485446854E-04
(PID.TID 0000.0001)  cg2d: iter=    32 ; resid.=  3.14884654151477E-04
(PID.TID 0000.0001)  cg2d: iter=    33 ; resid.=  2.69992290038186E-04
(PID.TID 0000.0001)  cg2d: iter=    34 ; resid.=  2.08987066138904E-04
(PID.TID 0000.0001)  cg2d: iter=    35 ; resid.=  1.60186694607743E-04
(PID.TID 0000.0001)  cg2d: iter=    36 ; resid.=  1.36387719552571E-04
(PID.TID 0000.0001)  cg2d: iter=    37 ; resid.=  1.13492393475248E-04
(PID.TID 0000.0001)  cg2d: iter=    38 ; resid.=  9.28093401844679E-05
(PID.TID 0000.0001)  cg2d: iter=    39 ; resid.=  7.75181335919595E-05
(PID.TID 0000.0001)  cg2d: iter=    40 ; resid.=  6.86421023150495E-05
(PID.TID 0000.0001)  cg2d: iter=    41 ; resid.=  6.46680903864823E-05
(PID.TID 0000.0001)  cg2d: iter=    42 ; resid.=  5.58287906269758E-05
(PID.TID 0000.0001)  cg2d: iter=    43 ; resid.=  4.56485715090374E-05
(PID.TID 0000.0001)  cg2d: iter=    44 ; resid.=  3.81076836061588E-05
(PID.TID 0000.0001)  cg2d: iter=    45 ; resid.=  3.20165386066796E-05
(PID.TID 0000.0001)  cg2d: iter=    46 ; resid.=  2.48227869809684E-05
(PID.TID 0000.0001)  cg2d: iter=    47 ; resid.=  1.80328124246657E-05
(PID.TID 0000.0001)  cg2d: iter=    48 ; resid.=  1.43264511254149E-05
(PID.TID 0000.0001)  cg2d: iter=    49 ; resid.=  1.20380069741929E-05
(PID.TID 0000.0001)  cg2d: iter=    50 ; resid.=  1.01992374487522E-05
(PID.TID 0000.0001)  cg2d: iter=    51 ; resid.=  8.19821282480242E-06
(PID.TID 0000.0001)  cg2d: iter=    52 ; resid.=  6.79052235652783E-06
(PID.TID 0000.0001)  cg2d: iter=    53 ; resid.=  5.81566238364674E-06
(PID.TID 0000.0001)  cg2d: iter=    54 ; resid.=  4.78119301718787E-06
(PID.TID 0000.0001)  cg2d: iter=    55 ; resid.=  3.63627552498926E-06
(PID.TID 0000.0001)  cg2d: iter=    56 ; resid.=  2.82702621499013E-06
(PID.TID 0000.0001)  cg2d: iter=    57 ; resid.=  2.40266247946178E-06
(PID.TID 0000.0001)  cg2d: iter=    58 ; resid.=  1.99296364256404E-06
(PID.TID 0000.0001)  cg2d: iter=    59 ; resid.=  1.54093263025997E-06
(PID.TID 0000.0001)  cg2d: iter=    60 ; resid.=  1.13221169600010E-06
(PID.TID 0000.0001)  cg2d: iter=    61 ; resid.=  9.61639402833897E-07
(PID.TID 0000.0001)  cg2d: iter=    62 ; resid.=  9.09149501517109E-07
(PID.TID 0000.0001)  cg2d: iter=    63 ; resid.=  7.68299693995522E-07
(PID.TID 0000.0001)  cg2d: iter=    64 ; resid.=  6.75324990869437E-07
(PID.TID 0000.0001)  cg2d: iter=    65 ; resid.=  5.59462759228724E-07
(PID.TID 0000.0001)  cg2d: iter=    66 ; resid.=  4.67862851289546E-07
(PID.TID 0000.0001)  cg2d: iter=    67 ; resid.=  3.78771100406169E-07
(PID.TID 0000.0001)  cg2d: iter=    68 ; resid.=  3.00304107924495E-07
(PID.TID 0000.0001)  cg2d: iter=    69 ; resid.=  2.40321975505479E-07
(PID.TID 0000.0001)  cg2d: iter=    70 ; resid.=  1.96661904554141E-07
(PID.TID 0000.0001)  cg2d: iter=    71 ; resid.=  1.61670792713866E-07
(PID.TID 0000.0001)  cg2d: iter=    72 ; resid.=  1.33111332200642E-07
(PID.TID 0000.0001)  cg2d: iter=    73 ; resid.=  1.14368211049513E-07
(PID.TID 0000.0001)  cg2d: iter=    74 ; resid.=  9.47418867741255E-08
(PID.TID 0000.0001)  cg2d: iter=    75 ; resid.=  7.68801849779106E-08
(PID.TID 0000.0001)  cg2d: iter=    76 ; resid.=  6.04841662112157E-08
(PID.TID 0000.0001)  cg2d: iter=    77 ; resid.=  4.75220947110015E-08
(PID.TID 0000.0001)  cg2d: iter=    78 ; resid.=  3.84435082462835E-08
(PID.TID 0000.0001)  cg2d: iter=    79 ; resid.=  3.26931124147990E-08
(PID.TID 0000.0001)  cg2d: iter=    80 ; resid.=  2.71967979679374E-08
(PID.TID 0000.0001)  cg2d: iter=    81 ; resid.=  2.21044755223024E-08
(PID.TID 0000.0001)  cg2d: iter=    82 ; resid.=  1.70160836347053E-08
(PID.TID 0000.0001)  cg2d: iter=    83 ; resid.=  1.29414052885649E-08
(PID.TID 0000.0001)  cg2d: iter=    84 ; resid.=  9.86510111651753E-09
(PID.TID 0000.0001)  cg2d: iter=    85 ; resid.=  7.69496250452625E-09
(PID.TID 0000.0001)  cg2d: iter=    86 ; resid.=  5.81047133260204E-09
(PID.TID 0000.0001)  cg2d: iter=    87 ; resid.=  4.65207263080126E-09
(PID.TID 0000.0001)  cg2d: iter=    88 ; resid.=  3.64396799045389E-09
(PID.TID 0000.0001)  cg2d: iter=    89 ; resid.=  3.00861314366503E-09
(PID.TID 0000.0001)  cg2d: iter=    90 ; resid.=  2.50554244670417E-09
(PID.TID 0000.0001)  cg2d: iter=    91 ; resid.=  2.09710520603985E-09
(PID.TID 0000.0001)  cg2d: iter=    92 ; resid.=  1.68670003015066E-09
(PID.TID 0000.0001)  cg2d: iter=    93 ; resid.=  1.25783176714376E-09
(PID.TID 0000.0001)  cg2d: iter=    94 ; resid.=  8.85287091743120E-10
(PID.TID 0000.0001)  cg2d: iter=    95 ; resid.=  6.49209683140856E-10
(PID.TID 0000.0001)  cg2d: iter=    96 ; resid.=  5.09711553373648E-10
(PID.TID 0000.0001)  cg2d: iter=    97 ; resid.=  4.16152547507311E-10
(PID.TID 0000.0001)  cg2d: iter=    98 ; resid.=  3.25926076109340E-10
(PID.TID 0000.0001)  cg2d: iter=    99 ; resid.=  2.38512750820529E-10
(PID.TID 0000.0001)  cg2d: iter=   100 ; resid.=  1.98646499745590E-10
(PID.TID 0000.0001)  cg2d: iter=   101 ; resid.=  1.73500954581411E-10
(PID.TID 0000.0001)  cg2d: iter=   102 ; resid.=  1.50917096601032E-10
(PID.TID 0000.0001)  cg2d: iter=   103 ; resid.=  1.20221049093995E-10
(PID.TID 0000.0001)  cg2d: iter=   104 ; resid.=  1.01971857684435E-10
(PID.TID 0000.0001)  cg2d: iter=   105 ; resid.=  8.99535545632739E-11
(PID.TID 0000.0001)  cg2d: iter=   106 ; resid.=  7.28489412328159E-11
(PID.TID 0000.0001)  cg2d: iter=   107 ; resid.=  5.49650865836191E-11
(PID.TID 0000.0001)  cg2d: iter=   108 ; resid.=  4.33850657315294E-11
(PID.TID 0000.0001)  cg2d: iter=   109 ; resid.=  3.60502865559829E-11
(PID.TID 0000.0001)  cg2d: iter=   110 ; resid.=  2.81529863398727E-11
(PID.TID 0000.0001)  cg2d: iter=   111 ; resid.=  2.24147274462861E-11
(PID.TID 0000.0001)  cg2d: iter=   112 ; resid.=  1.82522204190272E-11
(PID.TID 0000.0001)  cg2d: iter=   113 ; resid.=  1.44613436348010E-11
(PID.TID 0000.0001)  cg2d: iter=   114 ; resid.=  1.07885676216135E-11
(PID.TID 0000.0001)  cg2d: iter=   115 ; resid.=  7.79509380712177E-12
(PID.TID 0000.0001)  cg2d: iter=   116 ; resid.=  5.37939700012811E-12
(PID.TID 0000.0001)  cg2d: iter=   117 ; resid.=  4.24883843137896E-12
(PID.TID 0000.0001)  cg2d: iter=   118 ; resid.=  3.41103983089909E-12
(PID.TID 0000.0001)  cg2d: iter=   119 ; resid.=  2.59379188042208E-12
(PID.TID 0000.0001)  cg2d: iter=   120 ; resid.=  1.91553158514941E-12
(PID.TID 0000.0001)  cg2d: iter=   121 ; resid.=  1.45856311691302E-12
(PID.TID 0000.0001)  cg2d: iter=   122 ; resid.=  1.13343922596056E-12
(PID.TID 0000.0001)  cg2d: iter=   123 ; resid.=  8.61788051695355E-13
(PID.TID 0000.0001)  cg2d: iter=   124 ; resid.=  6.41325719752302E-13
(PID.TID 0000.0001)  cg2d: iter=   125 ; resid.=  4.79607927939448E-13
(PID.TID 0000.0001)  cg2d: iter=   126 ; resid.=  3.61559167861578E-13
(PID.TID 0000.0001)  cg2d: iter=   127 ; resid.=  2.43096894617551E-13
(PID.TID 0000.0001)  cg2d: iter=   128 ; resid.=  1.65735646405436E-13
(PID.TID 0000.0001)  cg2d: iter=   129 ; resid.=  1.20705729493405E-13
(PID.TID 0000.0001)  cg2d: iter=   130 ; resid.=  9.14587302592730E-14
DEBUG_STATS_RL:    cg2d_x (SOLVE_FOR_PRESSURE)  min= -1.63150784661279E+01
DEBUG_STATS_RL:    cg2d_x (SOLVE_FOR_PRESSURE)  max=  8.04992575294355E+00
DEBUG_STATS_RL:    cg2d_x (SOLVE_FOR_PRESSURE) mean= -1.68723074904511E+00
DEBUG_STATS_RL:    cg2d_x (SOLVE_FOR_PRESSURE) S.D.=  6.47276871058483E+00
(PID.TID 0000.0001)      cg2d_init_res =   3.45702401248028E-01
(PID.TID 0000.0001)      cg2d_iters(min,last) =      -1     130
(PID.TID 0000.0001)      cg2d_last_res =   9.14587302592730E-14
(PID.TID 0000.0001) // =======================================================
(PID.TID 0000.0001) // Begin MONITOR dynamic field statistics
(PID.TID 0000.0001) // =======================================================
(PID.TID 0000.0001) %MON time_tsnumber                =                    44
(PID.TID 0000.0001) %MON time_secondsf                =   3.8016000000000E+06
(PID.TID 0000.0001) %MON dynstat_eta_max              =   8.2058366492797E-01
(PID.TID 0000.0001) %MON dynstat_eta_min              =  -1.6631068772812E+00
(PID.TID 0000.0001) %MON dynstat_eta_mean             =  -3.3152483971573E-03
(PID.TID 0000.0001) %MON dynstat_eta_sd               =   5.6929694209447E-01
(PID.TID 0000.0001) %MON dynstat_eta_del2             =   2.1700335618611E-03
(PID.TID 0000.0001) %MON dynstat_uvel_max             =   1.6289610517121E-01
(PID.TID 0000.0001) %MON dynstat_uvel_min             =  -1.3938226218233E-01
(PID.TID 0000.0001) %MON dynstat_uvel_mean            =   1.7439135139464E-03
(PID.TID 0000.0001) %MON dynstat_uvel_sd              =   1.4346358021822E-02
(PID.TID 0000.0001) %MON dynstat_uvel_del2            =   8.5507291611603E-05
(PID.TID 0000.0001) %MON dynstat_vvel_max             =   1.1468386506706E-01
(PID.TID 0000.0001) %MON dynstat_vvel_min             =  -1.0874943473056E-01
(PID.TID 0000.0001) %MON dynstat_vvel_mean            =   5.2870692971099E-05
(PID.TID 0000.0001) %MON dynstat_vvel_sd              =   8.7086251980003E-03
(PID.TID 0000.0001) %MON dynstat_vvel_del2            =   7.5421802552427E-05
(PID.TID 0000.0001) %MON dynstat_wvel_max             =   1.0232371046892E-04
(PID.TID 0000.0001) %MON dynstat_wvel_min             =  -1.0784526991028E-04
(PID.TID 0000.0001) %MON dynstat_wvel_mean            =  -2.9861579901735E-22
(PID.TID 0000.0001) %MON dynstat_wvel_sd              =   1.3165277593667E-05
(PID.TID 0000.0001) %MON dynstat_wvel_del2            =   1.3336595603734E-07
(PID.TID 0000.0001) %MON dynstat_theta_max            =   3.0268663441948E+01
(PID.TID 0000.0001) %MON dynstat_theta_min            =  -1.9932336917066E+00
(PID.TID 0000.0001) %MON dynstat_theta_mean           =   3.6222768173932E+00
(PID.TID 0000.0001) %MON dynstat_theta_sd             =   4.4201307541358E+00
(PID.TID 0000.0001) %MON dynstat_theta_del2           =   4.7291316235785E-03
(PID.TID 0000.0001) %MON dynstat_salt_max             =   3.7455530049259E+01
(PID.TID 0000.0001) %MON dynstat_salt_min             =   2.9834432490486E+01
(PID.TID 0000.0001) %MON dynstat_salt_mean            =   3.4717980489848E+01
(PID.TID 0000.0001) %MON dynstat_salt_sd              =   2.9633579407388E-01
(PID.TID 0000.0001) %MON dynstat_salt_del2            =   9.8478764800215E-04
(PID.TID 0000.0001) %MON dynstat_sst_max              =   3.0268663441948E+01
(PID.TID 0000.0001) %MON dynstat_sst_min              =  -1.9932336917066E+00
(PID.TID 0000.0001) %MON dynstat_sst_mean             =   1.8878895699962E+01
(PID.TID 0000.0001) %MON dynstat_sst_sd               =   9.0093343448867E+00
(PID.TID 0000.0001) %MON dynstat_sst_del2             =   2.7081542388684E-02
(PID.TID 0000.0001) %MON dynstat_sss_max              =   3.7432706395284E+01
(PID.TID 0000.0001) %MON dynstat_sss_min              =   2.9834432490486E+01
(PID.TID 0000.0001) %MON dynstat_sss_mean             =   3.4844076537289E+01
(PID.TID 0000.0001) %MON dynstat_sss_sd               =   9.7712145528471E-01
(PID.TID 0000.0001) %MON dynstat_sss_del2             =   7.8668225840880E-03
(PID.TID 0000.0001) %MON forcing_qnet_max             =   3.6116065877279E+02
(PID.TID 0000.0001) %MON forcing_qnet_min             =  -1.7331300760905E+02
(PID.TID 0000.0001) %MON forcing_qnet_mean            =  -1.4135069313750E+01
(PID.TID 0000.0001) %MON forcing_qnet_sd              =   8.1439639696185E+01
(PID.TID 0000.0001) %MON forcing_qnet_del2            =   9.5075858077314E-01
(PID.TID 0000.0001) %MON forcing_qsw_max              =   0.0000000000000E+00
(PID.TID 0000.0001) %MON forcing_qsw_min              =   0.0000000000000E+00
(PID.TID 0000.0001) %MON forcing_qsw_mean             =   0.0000000000000E+00
(PID.TID 0000.0001) %MON forcing_qsw_sd               =   0.0000000000000E+00
(PID.TID 0000.0001) %MON forcing_qsw_del2             =   0.0000000000000E+00
(PID.TID 0000.0001) %MON forcing_empmr_max            =   7.3379726472922E-05
(PID.TID 0000.0001) %MON forcing_empmr_min            =  -7.8385995531486E-05
(PID.TID 0000.0001) %MON forcing_empmr_mean           =   9.4204418538947E-07
(PID.TID 0000.0001) %MON forcing_empmr_sd             =   2.7984746342061E-05
(PID.TID 0000.0001) %MON forcing_empmr_del2           =   3.5513748337795E-07
(PID.TID 0000.0001) %MON forcing_fu_max               =   3.0186120867729E-01
(PID.TID 0000.0001) %MON forcing_fu_min               =  -2.1399418314298E-01
(PID.TID 0000.0001) %MON forcing_fu_mean              =   1.7522141185698E-02
(PID.TID 0000.0001) %MON forcing_fu_sd                =   9.2407469002415E-02
(PID.TID 0000.0001) %MON forcing_fu_del2              =   7.2980579013269E-04
(PID.TID 0000.0001) %MON forcing_fv_max               =   1.9736103514830E-01
(PID.TID 0000.0001) %MON forcing_fv_min               =  -1.9333545764287E-01
(PID.TID 0000.0001) %MON forcing_fv_mean              =  -7.0862031275300E-03
(PID.TID 0000.0001) %MON forcing_fv_sd                =   4.4825947766004E-02
(PID.TID 0000.0001) %MON forcing_fv_del2              =   5.2614803750806E-04
(PID.TID 0000.0001) %MON trAdv_CFL_u_max              =   5.1385977950708E-02
(PID.TID 0000.0001) %MON trAdv_CFL_v_max              =   2.6206333991015E-02
(PID.TID 0000.0001) %MON trAdv_CFL_w_max              =   3.0656550417950E-02
(PID.TID 0000.0001) %MON advcfl_uvel_max              =   5.1142468083717E-02
(PID.TID 0000.0001) %MON advcfl_vvel_max              =   2.2281235674466E-02
(PID.TID 0000.0001) %MON advcfl_wvel_max              =   3.6772648788921E-02
(PID.TID 0000.0001) %MON advcfl_W_hf_max              =   4.4127178546706E-02
(PID.TID 0000.0001) %MON pe_b_mean                    =   4.1473780980817E-04
(PID.TID 0000.0001) %MON ke_max                       =   1.3382845841395E-02
(PID.TID 0000.0001) %MON ke_mean                      =   1.2893712976440E-04
(PID.TID 0000.0001) %MON ke_vol                       =   1.3226782436723E+18
(PID.TID 0000.0001) %MON vort_r_min                   =  -4.7130360682745E-07
(PID.TID 0000.0001) %MON vort_r_max                   =   3.8522260694697E-07
(PID.TID 0000.0001) %MON vort_a_mean                  =  -2.5274807099193E-05
(PID.TID 0000.0001) %MON vort_a_sd                    =   7.3604584598476E-05
(PID.TID 0000.0001) %MON vort_p_mean                  =  -3.1845655423674E-05
(PID.TID 0000.0001) %MON vort_p_sd                    =   1.3162441042227E-04
(PID.TID 0000.0001) %MON surfExpan_theta_mean         =   2.5627269901822E-07
(PID.TID 0000.0001) %MON surfExpan_salt_mean          =   2.1337947008152E-08
(PID.TID 0000.0001) // =======================================================
(PID.TID 0000.0001) // End MONITOR dynamic field statistics
(PID.TID 0000.0001) // =======================================================
 EXTERNAL_FIELDS_LOAD,        44 : iP,iLd,i0,i1=    1    2    1    2 ; Wght=  0.0333333333  0.9666666667
 EXTERNAL_FIELDS_LOAD: (fu0,1),fu,fv= -3.5633E-02 -1.4435E-02 -1.5141E-02 -1.8956E-02
 EXTERNAL_FIELDS_LOAD: SST,SSS,Q,E-P= -4.8218E-01  3.4431E+01  2.4132E+02  8.4859E-06
DEBUG_STATS_RL:          Uvel (THERMODYNAMICS)  min= -1.39382262182334E-01
DEBUG_STATS_RL:          Uvel (THERMODYNAMICS)  max=  1.62896105171213E-01
DEBUG_STATS_RL:          Uvel (THERMODYNAMICS) mean=  4.86756790284152E-03
DEBUG_STATS_RL:          Uvel (THERMODYNAMICS) S.D.=  2.42765911844097E-02
DEBUG_STATS_RL:          Vvel (THERMODYNAMICS)  min= -1.08749434730559E-01
DEBUG_STATS_RL:          Vvel (THERMODYNAMICS)  max=  1.14683865067059E-01
DEBUG_STATS_RL:          Vvel (THERMODYNAMICS) mean=  7.17173422514744E-04
DEBUG_STATS_RL:          Vvel (THERMODYNAMICS) S.D.=  1.38052927579324E-02
DEBUG_STATS_RL:          Wvel (THERMODYNAMICS)  min= -1.07845269910279E-04
DEBUG_STATS_RL:          Wvel (THERMODYNAMICS)  max=  1.02323710468915E-04
DEBUG_STATS_RL:          Wvel (THERMODYNAMICS) mean= -1.92412853258556E-07
DEBUG_STATS_RL:          Wvel (THERMODYNAMICS) S.D.=  1.15031400517207E-05
DEBUG_STATS_RL:         Theta (THERMODYNAMICS)  min= -1.99199206817553E+00
DEBUG_STATS_RL:         Theta (THERMODYNAMICS)  max=  3.02874745065749E+01
DEBUG_STATS_RL:         Theta (THERMODYNAMICS) mean=  3.21677471339496E+00
DEBUG_STATS_RL:         Theta (THERMODYNAMICS) S.D.=  5.86799961563243E+00
DEBUG_STATS_RL:          Salt (THERMODYNAMICS)  min= -1.90819582357449E-17
DEBUG_STATS_RL:          Salt (THERMODYNAMICS)  max=  3.74558897126460E+01
DEBUG_STATS_RL:          Salt (THERMODYNAMICS) mean=  1.88448785995711E+01
DEBUG_STATS_RL:          Salt (THERMODYNAMICS) S.D.=  1.73003986187820E+01
DEBUG_STATS_RL:         GtNm1 (THERMODYNAMICS)  min= -4.41494826189062E-06
DEBUG_STATS_RL:         GtNm1 (THERMODYNAMICS)  max=  2.66868209020186E-06
DEBUG_STATS_RL:         GtNm1 (THERMODYNAMICS) mean=  1.07015463248394E-08
DEBUG_STATS_RL:         GtNm1 (THERMODYNAMICS) S.D.=  1.98691089361217E-07
DEBUG_STATS_RL:         GsNm1 (THERMODYNAMICS)  min= -4.86578805938152E-07
DEBUG_STATS_RL:         GsNm1 (THERMODYNAMICS)  max=  3.21243204466644E-07
DEBUG_STATS_RL:         GsNm1 (THERMODYNAMICS) mean=  2.34660854790662E-10
DEBUG_STATS_RL:         GsNm1 (THERMODYNAMICS) S.D.=  1.85245656897862E-08
DEBUG_STATS_RL:                EtaN (DYNAMICS)  min= -1.66310687728124E+00
DEBUG_STATS_RL:                EtaN (DYNAMICS)  max=  8.20583664927966E-01
DEBUG_STATS_RL:                EtaN (DYNAMICS) mean= -1.71990902043334E-01
DEBUG_STATS_RL:                EtaN (DYNAMICS) S.D.=  6.59813324218637E-01
DEBUG_STATS_RL:                Uvel (DYNAMICS)  min= -1.39382262182334E-01
DEBUG_STATS_RL:                Uvel (DYNAMICS)  max=  1.62896105171213E-01
DEBUG_STATS_RL:                Uvel (DYNAMICS) mean=  4.86756790284152E-03
DEBUG_STATS_RL:                Uvel (DYNAMICS) S.D.=  2.42765911844097E-02
DEBUG_STATS_RL:                Vvel (DYNAMICS)  min= -1.08749434730559E-01
DEBUG_STATS_RL:                Vvel (DYNAMICS)  max=  1.14683865067059E-01
DEBUG_STATS_RL:                Vvel (DYNAMICS) mean=  7.17173422514744E-04
DEBUG_STATS_RL:                Vvel (DYNAMICS) S.D.=  1.38052927579324E-02
DEBUG_STATS_RL:                Wvel (DYNAMICS)  min= -1.07845269910279E-04
DEBUG_STATS_RL:                Wvel (DYNAMICS)  max=  1.02323710468915E-04
DEBUG_STATS_RL:                Wvel (DYNAMICS) mean= -1.92412853258556E-07
DEBUG_STATS_RL:                Wvel (DYNAMICS) S.D.=  1.15031400517207E-05
DEBUG_STATS_RL:               Theta (DYNAMICS)  min= -1.99199206817553E+00
DEBUG_STATS_RL:               Theta (DYNAMICS)  max=  3.02874745065749E+01
DEBUG_STATS_RL:               Theta (DYNAMICS) mean=  3.21677471339496E+00
DEBUG_STATS_RL:               Theta (DYNAMICS) S.D.=  5.86799961563243E+00
DEBUG_STATS_RL:                Salt (DYNAMICS)  min= -1.90819582357449E-17
DEBUG_STATS_RL:                Salt (DYNAMICS)  max=  3.74558897126460E+01
DEBUG_STATS_RL:                Salt (DYNAMICS) mean=  1.88448785995711E+01
DEBUG_STATS_RL:                Salt (DYNAMICS) S.D.=  1.73003986187820E+01
DEBUG_STATS_RL:                  Gu (DYNAMICS)  min= -1.38180629122083E-01
DEBUG_STATS_RL:                  Gu (DYNAMICS)  max=  1.67551753551094E-01
DEBUG_STATS_RL:                  Gu (DYNAMICS) mean=  4.93856005952640E-03
DEBUG_STATS_RL:                  Gu (DYNAMICS) S.D.=  2.48208490411884E-02
DEBUG_STATS_RL:                  Gv (DYNAMICS)  min= -1.04084226824223E-01
DEBUG_STATS_RL:                  Gv (DYNAMICS)  max=  1.19207360485852E-01
DEBUG_STATS_RL:                  Gv (DYNAMICS) mean=  3.32515874445715E-03
DEBUG_STATS_RL:                  Gv (DYNAMICS) S.D.=  1.46052232219386E-02
DEBUG_STATS_RL:               GuNm1 (DYNAMICS)  min= -8.80827238309828E-06
DEBUG_STATS_RL:               GuNm1 (DYNAMICS)  max=  8.53719223559405E-06
DEBUG_STATS_RL:               GuNm1 (DYNAMICS) mean= -1.47142183739206E-08
DEBUG_STATS_RL:               GuNm1 (DYNAMICS) S.D.=  1.16991412657927E-06
DEBUG_STATS_RL:               GvNm1 (DYNAMICS)  min= -9.70653567059877E-06
DEBUG_STATS_RL:               GvNm1 (DYNAMICS)  max=  1.63398518515802E-05
DEBUG_STATS_RL:               GvNm1 (DYNAMICS) mean=  7.48237190371733E-07
DEBUG_STATS_RL:               GvNm1 (DYNAMICS) S.D.=  2.58761510674969E-06
DEBUG_STATS_RL:               GtNm1 (DYNAMICS)  min= -4.41494826189062E-06
DEBUG_STATS_RL:               GtNm1 (DYNAMICS)  max=  2.66868209020186E-06
DEBUG_STATS_RL:               GtNm1 (DYNAMICS) mean=  1.07015463248394E-08
DEBUG_STATS_RL:               GtNm1 (DYNAMICS) S.D.=  1.98691089361217E-07
DEBUG_STATS_RL:               GsNm1 (DYNAMICS)  min= -4.86578805938152E-07
DEBUG_STATS_RL:               GsNm1 (DYNAMICS)  max=  3.21243204466644E-07
DEBUG_STATS_RL:               GsNm1 (DYNAMICS) mean=  2.34660854790662E-10
DEBUG_STATS_RL:               GsNm1 (DYNAMICS) S.D.=  1.85245656897862E-08
DEBUG_STATS_RL:    cg2d_b (SOLVE_FOR_PRESSURE)  min= -1.96575250680801E+04
DEBUG_STATS_RL:    cg2d_b (SOLVE_FOR_PRESSURE)  max=  2.32042895511909E+04
DEBUG_STATS_RL:    cg2d_b (SOLVE_FOR_PRESSURE) mean=  3.25284994042152E+00
DEBUG_STATS_RL:    cg2d_b (SOLVE_FOR_PRESSURE) S.D.=  3.61333812397417E+03
 cg2d: Sum(rhs),rhsMax =   3.24523946120447E-01  1.52411986548369E+00
(PID.TID 0000.0001)  cg2d: iter=     1 ; resid.=  8.76534718266059E-02
(PID.TID 0000.0001)  cg2d: iter=     2 ; resid.=  4.12250749361684E-02
(PID.TID 0000.0001)  cg2d: iter=     3 ; resid.=  3.50452579081434E-02
(PID.TID 0000.0001)  cg2d: iter=     4 ; resid.=  3.60679448258216E-02
(PID.TID 0000.0001)  cg2d: iter=     5 ; resid.=  3.33363111528450E-02
(PID.TID 0000.0001)  cg2d: iter=     6 ; resid.=  2.90033071427955E-02
(PID.TID 0000.0001)  cg2d: iter=     7 ; resid.=  2.36261264006889E-02
(PID.TID 0000.0001)  cg2d: iter=     8 ; resid.=  2.13953614945361E-02
(PID.TID 0000.0001)  cg2d: iter=     9 ; resid.=  1.95123590155187E-02
(PID.TID 0000.0001)  cg2d: iter=    10 ; resid.=  1.79678497461963E-02
(PID.TID 0000.0001)  cg2d: iter=    11 ; resid.=  1.54770266311767E-02
(PID.TID 0000.0001)  cg2d: iter=    12 ; resid.=  1.23682526952168E-02
(PID.TID 0000.0001)  cg2d: iter=    13 ; resid.=  9.73004810234624E-03
(PID.TID 0000.0001)  cg2d: iter=    14 ; resid.=  7.47885043426346E-03
(PID.TID 0000.0001)  cg2d: iter=    15 ; resid.=  6.10404275440744E-03
(PID.TID 0000.0001)  cg2d: iter=    16 ; resid.=  5.16706204598098E-03
(PID.TID 0000.0001)  cg2d: iter=    17 ; resid.=  4.77327104782873E-03
(PID.TID 0000.0001)  cg2d: iter=    18 ; resid.=  3.84721365098248E-03
(PID.TID 0000.0001)  cg2d: iter=    19 ; resid.=  3.14318524260930E-03
(PID.TID 0000.0001)  cg2d: iter=    20 ; resid.=  2.57066885850739E-03
(PID.TID 0000.0001)  cg2d: iter=    21 ; resid.=  2.01640758694249E-03
(PID.TID 0000.0001)  cg2d: iter=    22 ; resid.=  1.77145411520980E-03
(PID.TID 0000.0001)  cg2d: iter=    23 ; resid.=  1.57319512850189E-03
(PID.TID 0000.0001)  cg2d: iter=    24 ; resid.=  1.25562380119389E-03
(PID.TID 0000.0001)  cg2d: iter=    25 ; resid.=  9.70825378786579E-04
(PID.TID 0000.0001)  cg2d: iter=    26 ; resid.=  7.97826377864015E-04
(PID.TID 0000.0001)  cg2d: iter=    27 ; resid.=  7.38589017148318E-04
(PID.TID 0000.0001)  cg2d: iter=    28 ; resid.=  6.87370794444866E-04
(PID.TID 0000.0001)  cg2d: iter=    29 ; resid.=  6.04658061556854E-04
(PID.TID 0000.0001)  cg2d: iter=    30 ; resid.=  4.69813560529238E-04
(PID.TID 0000.0001)  cg2d: iter=    31 ; resid.=  3.81405618766939E-04
(PID.TID 0000.0001)  cg2d: iter=    32 ; resid.=  3.22345632052396E-04
(PID.TID 0000.0001)  cg2d: iter=    33 ; resid.=  2.70999188928263E-04
(PID.TID 0000.0001)  cg2d: iter=    34 ; resid.=  2.06707917168825E-04
(PID.TID 0000.0001)  cg2d: iter=    35 ; resid.=  1.58698911045339E-04
(PID.TID 0000.0001)  cg2d: iter=    36 ; resid.=  1.37832923956341E-04
(PID.TID 0000.0001)  cg2d: iter=    37 ; resid.=  1.15556535279779E-04
(PID.TID 0000.0001)  cg2d: iter=    38 ; resid.=  9.43194244793823E-05
(PID.TID 0000.0001)  cg2d: iter=    39 ; resid.=  7.99619094364185E-05
(PID.TID 0000.0001)  cg2d: iter=    40 ; resid.=  7.38403750874037E-05
(PID.TID 0000.0001)  cg2d: iter=    41 ; resid.=  6.96405839645041E-05
(PID.TID 0000.0001)  cg2d: iter=    42 ; resid.=  5.96611822925338E-05
(PID.TID 0000.0001)  cg2d: iter=    43 ; resid.=  4.91616132938877E-05
(PID.TID 0000.0001)  cg2d: iter=    44 ; resid.=  4.16173378160343E-05
(PID.TID 0000.0001)  cg2d: iter=    45 ; resid.=  3.51592782662978E-05
(PID.TID 0000.0001)  cg2d: iter=    46 ; resid.=  2.70469682794032E-05
(PID.TID 0000.0001)  cg2d: iter=    47 ; resid.=  1.94098116209639E-05
(PID.TID 0000.0001)  cg2d: iter=    48 ; resid.=  1.54999164642131E-05
(PID.TID 0000.0001)  cg2d: iter=    49 ; resid.=  1.30807932416746E-05
(PID.TID 0000.0001)  cg2d: iter=    50 ; resid.=  1.10851350447460E-05
(PID.TID 0000.0001)  cg2d: iter=    51 ; resid.=  8.89643937070610E-06
(PID.TID 0000.0001)  cg2d: iter=    52 ; resid.=  7.26297680970417E-06
(PID.TID 0000.0001)  cg2d: iter=    53 ; resid.=  6.01645631728315E-06
(PID.TID 0000.0001)  cg2d: iter=    54 ; resid.=  4.76769853138558E-06
(PID.TID 0000.0001)  cg2d: iter=    55 ; resid.=  3.49025744984686E-06
(PID.TID 0000.0001)  cg2d: iter=    56 ; resid.=  2.61663095606343E-06
(PID.TID 0000.0001)  cg2d: iter=    57 ; resid.=  2.12504468243386E-06
(PID.TID 0000.0001)  cg2d: iter=    58 ; resid.=  1.69096251737926E-06
(PID.TID 0000.0001)  cg2d: iter=    59 ; resid.=  1.29975392172780E-06
(PID.TID 0000.0001)  cg2d: iter=    60 ; resid.=  9.44858403991228E-07
(PID.TID 0000.0001)  cg2d: iter=    61 ; resid.=  7.77775712560320E-07
(PID.TID 0000.0001)  cg2d: iter=    62 ; resid.=  7.28027422697261E-07
(PID.TID 0000.0001)  cg2d: iter=    63 ; resid.=  6.19048258734817E-07
(PID.TID 0000.0001)  cg2d: iter=    64 ; resid.=  5.58929824021337E-07
(PID.TID 0000.0001)  cg2d: iter=    65 ; resid.=  4.86926896275962E-07
(PID.TID 0000.0001)  cg2d: iter=    66 ; resid.=  4.22969463773520E-07
(PID.TID 0000.0001)  cg2d: iter=    67 ; resid.=  3.48406539316411E-07
(PID.TID 0000.0001)  cg2d: iter=    68 ; resid.=  2.81008872660241E-07
(PID.TID 0000.0001)  cg2d: iter=    69 ; resid.=  2.26815082278336E-07
(PID.TID 0000.0001)  cg2d: iter=    70 ; resid.=  1.84576863269911E-07
(PID.TID 0000.0001)  cg2d: iter=    71 ; resid.=  1.47961245604459E-07
(PID.TID 0000.0001)  cg2d: iter=    72 ; resid.=  1.19145777073938E-07
(PID.TID 0000.0001)  cg2d: iter=    73 ; resid.=  9.97362221812927E-08
(PID.TID 0000.0001)  cg2d: iter=    74 ; resid.=  8.05531048487171E-08
(PID.TID 0000.0001)  cg2d: iter=    75 ; resid.=  6.47153209693948E-08
(PID.TID 0000.0001)  cg2d: iter=    76 ; resid.=  5.09324188775045E-08
(PID.TID 0000.0001)  cg2d: iter=    77 ; resid.=  3.91989512365849E-08
(PID.TID 0000.0001)  cg2d: iter=    78 ; resid.=  3.03484711458345E-08
(PID.TID 0000.0001)  cg2d: iter=    79 ; resid.=  2.46546111751513E-08
(PID.TID 0000.0001)  cg2d: iter=    80 ; resid.=  2.03743197043647E-08
(PID.TID 0000.0001)  cg2d: iter=    81 ; resid.=  1.65824111747094E-08
(PID.TID 0000.0001)  cg2d: iter=    82 ; resid.=  1.28908822413031E-08
(PID.TID 0000.0001)  cg2d: iter=    83 ; resid.=  9.83690485389533E-09
(PID.TID 0000.0001)  cg2d: iter=    84 ; resid.=  7.57094815248848E-09
(PID.TID 0000.0001)  cg2d: iter=    85 ; resid.=  6.05102225330813E-09
(PID.TID 0000.0001)  cg2d: iter=    86 ; resid.=  4.65099418398699E-09
(PID.TID 0000.0001)  cg2d: iter=    87 ; resid.=  3.83820866864945E-09
(PID.TID 0000.0001)  cg2d: iter=    88 ; resid.=  3.13949823006037E-09
(PID.TID 0000.0001)  cg2d: iter=    89 ; resid.=  2.76882574609475E-09
(PID.TID 0000.0001)  cg2d: iter=    90 ; resid.=  2.44236782321914E-09
(PID.TID 0000.0001)  cg2d: iter=    91 ; resid.=  2.13848265042806E-09
(PID.TID 0000.0001)  cg2d: iter=    92 ; resid.=  1.77215332939607E-09
(PID.TID 0000.0001)  cg2d: iter=    93 ; resid.=  1.33005013220116E-09
(PID.TID 0000.0001)  cg2d: iter=    94 ; resid.=  9.42985883628814E-10
(PID.TID 0000.0001)  cg2d: iter=    95 ; resid.=  6.92164175436484E-10
(PID.TID 0000.0001)  cg2d: iter=    96 ; resid.=  5.27828327189899E-10
(PID.TID 0000.0001)  cg2d: iter=    97 ; resid.=  4.17726927393614E-10
(PID.TID 0000.0001)  cg2d: iter=    98 ; resid.=  3.31351872510960E-10
(PID.TID 0000.0001)  cg2d: iter=    99 ; resid.=  2.46285389722643E-10
(PID.TID 0000.0001)  cg2d: iter=   100 ; resid.=  2.03652457919417E-10
(PID.TID 0000.0001)  cg2d: iter=   101 ; resid.=  1.78835982440820E-10
(PID.TID 0000.0001)  cg2d: iter=   102 ; resid.=  1.52807544091817E-10
(PID.TID 0000.0001)  cg2d: iter=   103 ; resid.=  1.17099727664541E-10
(PID.TID 0000.0001)  cg2d: iter=   104 ; resid.=  9.34429978009897E-11
(PID.TID 0000.0001)  cg2d: iter=   105 ; resid.=  8.01725369123837E-11
(PID.TID 0000.0001)  cg2d: iter=   106 ; resid.=  6.38083026275888E-11
(PID.TID 0000.0001)  cg2d: iter=   107 ; resid.=  4.68527295163717E-11
(PID.TID 0000.0001)  cg2d: iter=   108 ; resid.=  3.59457240177803E-11
(PID.TID 0000.0001)  cg2d: iter=   109 ; resid.=  2.90449173987659E-11
(PID.TID 0000.0001)  cg2d: iter=   110 ; resid.=  2.34090888848451E-11
(PID.TID 0000.0001)  cg2d: iter=   111 ; resid.=  1.91699263032825E-11
(PID.TID 0000.0001)  cg2d: iter=   112 ; resid.=  1.60993818737801E-11
(PID.TID 0000.0001)  cg2d: iter=   113 ; resid.=  1.32534225373001E-11
(PID.TID 0000.0001)  cg2d: iter=   114 ; resid.=  1.02175757449612E-11
(PID.TID 0000.0001)  cg2d: iter=   115 ; resid.=  7.60522541741096E-12
(PID.TID 0000.0001)  cg2d: iter=   116 ; resid.=  5.29521559792144E-12
(PID.TID 0000.0001)  cg2d: iter=   117 ; resid.=  4.11827452878544E-12
(PID.TID 0000.0001)  cg2d: iter=   118 ; resid.=  3.29960359206547E-12
(PID.TID 0000.0001)  cg2d: iter=   119 ; resid.=  2.46449373350477E-12
(PID.TID 0000.0001)  cg2d: iter=   120 ; resid.=  1.74813203864821E-12
(PID.TID 0000.0001)  cg2d: iter=   121 ; resid.=  1.28405289331780E-12
(PID.TID 0000.0001)  cg2d: iter=   122 ; resid.=  9.88141921550009E-13
(PID.TID 0000.0001)  cg2d: iter=   123 ; resid.=  7.69326473677169E-13
(PID.TID 0000.0001)  cg2d: iter=   124 ; resid.=  5.91667261896164E-13
(PID.TID 0000.0001)  cg2d: iter=   125 ; resid.=  4.45963085198951E-13
(PID.TID 0000.0001)  cg2d: iter=   126 ; resid.=  3.40271985175601E-13
(PID.TID 0000.0001)  cg2d: iter=   127 ; resid.=  2.37695759069061E-13
(PID.TID 0000.0001)  cg2d: iter=   128 ; resid.=  1.65052352479219E-13
(PID.TID 0000.0001)  cg2d: iter=   129 ; resid.=  1.22550741201912E-13
(PID.TID 0000.0001)  cg2d: iter=   130 ; resid.=  9.47482745300440E-14
DEBUG_STATS_RL:    cg2d_x (SOLVE_FOR_PRESSURE)  min= -1.66117293019825E+01
DEBUG_STATS_RL:    cg2d_x (SOLVE_FOR_PRESSURE)  max=  8.05273531120675E+00
DEBUG_STATS_RL:    cg2d_x (SOLVE_FOR_PRESSURE) mean= -1.69439014486495E+00
DEBUG_STATS_RL:    cg2d_x (SOLVE_FOR_PRESSURE) S.D.=  6.51662759715521E+00
(PID.TID 0000.0001)      cg2d_init_res =   3.33755386963467E-01
(PID.TID 0000.0001)      cg2d_iters(min,last) =      -1     130
(PID.TID 0000.0001)      cg2d_last_res =   9.47482745300440E-14
(PID.TID 0000.0001) // =======================================================
(PID.TID 0000.0001) // Begin MONITOR dynamic field statistics
(PID.TID 0000.0001) // =======================================================
(PID.TID 0000.0001) %MON time_tsnumber                =                    45
(PID.TID 0000.0001) %MON time_secondsf                =   3.8880000000000E+06
(PID.TID 0000.0001) %MON dynstat_eta_max              =   8.2087006230452E-01
(PID.TID 0000.0001) %MON dynstat_eta_min              =  -1.6933465139635E+00
(PID.TID 0000.0001) %MON dynstat_eta_mean             =  -3.3939455727527E-03
(PID.TID 0000.0001) %MON dynstat_eta_sd               =   5.7313609020874E-01
(PID.TID 0000.0001) %MON dynstat_eta_del2             =   2.1798607951632E-03
(PID.TID 0000.0001) %MON dynstat_uvel_max             =   1.6610604868997E-01
(PID.TID 0000.0001) %MON dynstat_uvel_min             =  -1.3786988969778E-01
(PID.TID 0000.0001) %MON dynstat_uvel_mean            =   1.8320671252582E-03
(PID.TID 0000.0001) %MON dynstat_uvel_sd              =   1.4512456797516E-02
(PID.TID 0000.0001) %MON dynstat_uvel_del2            =   8.5838654466709E-05
(PID.TID 0000.0001) %MON dynstat_vvel_max             =   1.1782674129447E-01
(PID.TID 0000.0001) %MON dynstat_vvel_min             =  -1.0697820839399E-01
(PID.TID 0000.0001) %MON dynstat_vvel_mean            =   4.8483315251400E-05
(PID.TID 0000.0001) %MON dynstat_vvel_sd              =   8.6587506322855E-03
(PID.TID 0000.0001) %MON dynstat_vvel_del2            =   7.5292880563899E-05
(PID.TID 0000.0001) %MON dynstat_wvel_max             =   1.1222602015224E-04
(PID.TID 0000.0001) %MON dynstat_wvel_min             =  -1.0227522553688E-04
(PID.TID 0000.0001) %MON dynstat_wvel_mean            =  -5.3798552622720E-23
(PID.TID 0000.0001) %MON dynstat_wvel_sd              =   1.3015280901014E-05
(PID.TID 0000.0001) %MON dynstat_wvel_del2            =   1.3175406810139E-07
(PID.TID 0000.0001) %MON dynstat_theta_max            =   3.0287474506575E+01
(PID.TID 0000.0001) %MON dynstat_theta_min            =  -1.9919920681755E+00
(PID.TID 0000.0001) %MON dynstat_theta_mean           =   3.6223499866127E+00
(PID.TID 0000.0001) %MON dynstat_theta_sd             =   4.4203506848195E+00
(PID.TID 0000.0001) %MON dynstat_theta_del2           =   4.7330072568038E-03
(PID.TID 0000.0001) %MON dynstat_salt_max             =   3.7455889712646E+01
(PID.TID 0000.0001) %MON dynstat_salt_min             =   2.9836948857894E+01
(PID.TID 0000.0001) %MON dynstat_salt_mean            =   3.4717981092345E+01
(PID.TID 0000.0001) %MON dynstat_salt_sd              =   2.9634271596801E-01
(PID.TID 0000.0001) %MON dynstat_salt_del2            =   9.8504871548126E-04
(PID.TID 0000.0001) %MON dynstat_sst_max              =   3.0287474506575E+01
(PID.TID 0000.0001) %MON dynstat_sst_min              =  -1.9919920681755E+00
(PID.TID 0000.0001) %MON dynstat_sst_mean             =   1.8888762309771E+01
(PID.TID 0000.0001) %MON dynstat_sst_sd               =   9.0095209743765E+00
(PID.TID 0000.0001) %MON dynstat_sst_del2             =   2.7148316767947E-02
(PID.TID 0000.0001) %MON dynstat_sss_max              =   3.7433872586990E+01
(PID.TID 0000.0001) %MON dynstat_sss_min              =   2.9836948857894E+01
(PID.TID 0000.0001) %MON dynstat_sss_mean             =   3.4844061276399E+01
(PID.TID 0000.0001) %MON dynstat_sss_sd               =   9.7724069640225E-01
(PID.TID 0000.0001) %MON dynstat_sss_del2             =   7.8749322524881E-03
(PID.TID 0000.0001) %MON forcing_qnet_max             =   3.5980644938151E+02
(PID.TID 0000.0001) %MON forcing_qnet_min             =  -1.7307348836263E+02
(PID.TID 0000.0001) %MON forcing_qnet_mean            =  -1.4050160146347E+01
(PID.TID 0000.0001) %MON forcing_qnet_sd              =   8.0515925311569E+01
(PID.TID 0000.0001) %MON forcing_qnet_del2            =   9.4993377104494E-01
(PID.TID 0000.0001) %MON forcing_qsw_max              =   0.0000000000000E+00
(PID.TID 0000.0001) %MON forcing_qsw_min              =   0.0000000000000E+00
(PID.TID 0000.0001) %MON forcing_qsw_mean             =   0.0000000000000E+00
(PID.TID 0000.0001) %MON forcing_qsw_sd               =   0.0000000000000E+00
(PID.TID 0000.0001) %MON forcing_qsw_del2             =   0.0000000000000E+00
(PID.TID 0000.0001) %MON forcing_empmr_max            =   7.3065636740921E-05
(PID.TID 0000.0001) %MON forcing_empmr_min            =  -7.8465639793042E-05
(PID.TID 0000.0001) %MON forcing_empmr_mean           =   9.4272658264943E-07
(PID.TID 0000.0001) %MON forcing_empmr_sd             =   2.7982248259518E-05
(PID.TID 0000.0001) %MON forcing_empmr_del2           =   3.5557407608614E-07
(PID.TID 0000.0001) %MON forcing_fu_max               =   3.0324836671352E-01
(PID.TID 0000.0001) %MON forcing_fu_min               =  -2.1682592133681E-01
(PID.TID 0000.0001) %MON forcing_fu_mean              =   1.7576441401167E-02
(PID.TID 0000.0001) %MON forcing_fu_sd                =   9.2702887616547E-02
(PID.TID 0000.0001) %MON forcing_fu_del2              =   7.3829863471251E-04
(PID.TID 0000.0001) %MON forcing_fv_max               =   1.9947300006946E-01
(PID.TID 0000.0001) %MON forcing_fv_min               =  -1.9650735656420E-01
(PID.TID 0000.0001) %MON forcing_fv_mean              =  -7.1514640342452E-03
(PID.TID 0000.0001) %MON forcing_fv_sd                =   4.4931010890769E-02
(PID.TID 0000.0001) %MON forcing_fv_del2              =   5.3367284187280E-04
(PID.TID 0000.0001) %MON trAdv_CFL_u_max              =   5.1152855484762E-02
(PID.TID 0000.0001) %MON trAdv_CFL_v_max              =   2.6887906831972E-02
(PID.TID 0000.0001) %MON trAdv_CFL_w_max              =   3.1519413247647E-02
(PID.TID 0000.0001) %MON advcfl_uvel_max              =   5.0326129456472E-02
(PID.TID 0000.0001) %MON advcfl_vvel_max              =   2.2891846119778E-02
(PID.TID 0000.0001) %MON advcfl_wvel_max              =   3.7436220045251E-02
(PID.TID 0000.0001) %MON advcfl_W_hf_max              =   4.4923464054301E-02
(PID.TID 0000.0001) %MON pe_b_mean                    =   4.2035086222516E-04
(PID.TID 0000.0001) %MON ke_max                       =   1.4038816503677E-02
(PID.TID 0000.0001) %MON ke_mean                      =   1.3086899604549E-04
(PID.TID 0000.0001) %MON ke_vol                       =   1.3226782436723E+18
(PID.TID 0000.0001) %MON vort_r_min                   =  -4.7514627910256E-07
(PID.TID 0000.0001) %MON vort_r_max                   =   3.7831897063014E-07
(PID.TID 0000.0001) %MON vort_a_mean                  =  -2.5274807092680E-05
(PID.TID 0000.0001) %MON vort_a_sd                    =   7.3604597666855E-05
(PID.TID 0000.0001) %MON vort_p_mean                  =  -3.1845655415468E-05
(PID.TID 0000.0001) %MON vort_p_sd                    =   1.3162442120046E-04
(PID.TID 0000.0001) %MON surfExpan_theta_mean         =   2.7714787990278E-07
(PID.TID 0000.0001) %MON surfExpan_salt_mean          =   1.3903216248105E-08
(PID.TID 0000.0001) // =======================================================
(PID.TID 0000.0001) // End MONITOR dynamic field statistics
(PID.TID 0000.0001) // =======================================================
 EXTERNAL_FIELDS_LOAD,        45 : iP,iLd,i0,i1=    1    2    2    3 ; Wght=  1.0000000000  0.0000000000
 EXTERNAL_FIELDS_LOAD, it=        45 : Reading new data, i0,i1=    2    3 (prev=    1    2 )
(PID.TID 0000.0001)  MDS_READ_FIELD: opening global file: trenberth_taux.bin
(PID.TID 0000.0001)  MDS_READ_FIELD: opening global file: trenberth_taux.bin
(PID.TID 0000.0001)  MDS_READ_FIELD: opening global file: trenberth_tauy.bin
(PID.TID 0000.0001)  MDS_READ_FIELD: opening global file: trenberth_tauy.bin
(PID.TID 0000.0001)  MDS_READ_FIELD: opening global file: ncep_qnet.bin
(PID.TID 0000.0001)  MDS_READ_FIELD: opening global file: ncep_qnet.bin
(PID.TID 0000.0001)  MDS_READ_FIELD: opening global file: ncep_emp.bin
(PID.TID 0000.0001)  MDS_READ_FIELD: opening global file: ncep_emp.bin
(PID.TID 0000.0001)  MDS_READ_FIELD: opening global file: lev_sst.bin
(PID.TID 0000.0001)  MDS_READ_FIELD: opening global file: lev_sst.bin
(PID.TID 0000.0001)  MDS_READ_FIELD: opening global file: lev_sss.bin
(PID.TID 0000.0001)  MDS_READ_FIELD: opening global file: lev_sss.bin
 EXTERNAL_FIELDS_LOAD: (fu0,1),fu,fv= -1.4435E-02 -2.7199E-02 -1.4435E-02 -1.7636E-02
 EXTERNAL_FIELDS_LOAD: SST,SSS,Q,E-P= -5.3186E-01  3.4421E+01  2.4048E+02  8.3772E-06
DEBUG_STATS_RL:          Uvel (THERMODYNAMICS)  min= -1.37869889697775E-01
DEBUG_STATS_RL:          Uvel (THERMODYNAMICS)  max=  1.66106048689970E-01
DEBUG_STATS_RL:          Uvel (THERMODYNAMICS) mean=  5.10046769045828E-03
DEBUG_STATS_RL:          Uvel (THERMODYNAMICS) S.D.=  2.44786316411991E-02
DEBUG_STATS_RL:          Vvel (THERMODYNAMICS)  min= -1.06978208393993E-01
DEBUG_STATS_RL:          Vvel (THERMODYNAMICS)  max=  1.17826741294471E-01
DEBUG_STATS_RL:          Vvel (THERMODYNAMICS) mean=  9.08757599764234E-04
DEBUG_STATS_RL:          Vvel (THERMODYNAMICS) S.D.=  1.38519122736794E-02
DEBUG_STATS_RL:          Wvel (THERMODYNAMICS)  min= -1.02275225536878E-04
DEBUG_STATS_RL:          Wvel (THERMODYNAMICS)  max=  1.12226020152235E-04
DEBUG_STATS_RL:          Wvel (THERMODYNAMICS) mean= -1.43622671761251E-07
DEBUG_STATS_RL:          Wvel (THERMODYNAMICS) S.D.=  1.14172116692044E-05
DEBUG_STATS_RL:         Theta (THERMODYNAMICS)  min= -1.99077448140195E+00
DEBUG_STATS_RL:         Theta (THERMODYNAMICS)  max=  3.03052479745611E+01
DEBUG_STATS_RL:         Theta (THERMODYNAMICS) mean=  3.21719693473223E+00
DEBUG_STATS_RL:         Theta (THERMODYNAMICS) S.D.=  5.86879161793097E+00
DEBUG_STATS_RL:          Salt (THERMODYNAMICS)  min= -1.90819582357449E-17
DEBUG_STATS_RL:          Salt (THERMODYNAMICS)  max=  3.74563540496249E+01
DEBUG_STATS_RL:          Salt (THERMODYNAMICS) mean=  1.88448925880782E+01
DEBUG_STATS_RL:          Salt (THERMODYNAMICS) S.D.=  1.73004118648647E+01
DEBUG_STATS_RL:         GtNm1 (THERMODYNAMICS)  min= -4.56308640084241E-06
DEBUG_STATS_RL:         GtNm1 (THERMODYNAMICS)  max=  2.75064641079051E-06
DEBUG_STATS_RL:         GtNm1 (THERMODYNAMICS) mean=  9.70089045485067E-09
DEBUG_STATS_RL:         GtNm1 (THERMODYNAMICS) S.D.=  1.96589331754461E-07
DEBUG_STATS_RL:         GsNm1 (THERMODYNAMICS)  min= -4.63432417659112E-07
DEBUG_STATS_RL:         GsNm1 (THERMODYNAMICS)  max=  3.16491265667069E-07
DEBUG_STATS_RL:         GsNm1 (THERMODYNAMICS) mean=  2.37540431888982E-10
DEBUG_STATS_RL:         GsNm1 (THERMODYNAMICS) S.D.=  1.84616836688898E-08
DEBUG_STATS_RL:                EtaN (DYNAMICS)  min= -1.69334651396353E+00
DEBUG_STATS_RL:                EtaN (DYNAMICS)  max=  8.20870062304519E-01
DEBUG_STATS_RL:                EtaN (DYNAMICS) mean= -1.72720707937305E-01
DEBUG_STATS_RL:                EtaN (DYNAMICS) S.D.=  6.64284158731417E-01
DEBUG_STATS_RL:                Uvel (DYNAMICS)  min= -1.37869889697775E-01
DEBUG_STATS_RL:                Uvel (DYNAMICS)  max=  1.66106048689970E-01
DEBUG_STATS_RL:                Uvel (DYNAMICS) mean=  5.10046769045828E-03
DEBUG_STATS_RL:                Uvel (DYNAMICS) S.D.=  2.44786316411991E-02
DEBUG_STATS_RL:                Vvel (DYNAMICS)  min= -1.06978208393993E-01
DEBUG_STATS_RL:                Vvel (DYNAMICS)  max=  1.17826741294471E-01
DEBUG_STATS_RL:                Vvel (DYNAMICS) mean=  9.08757599764234E-04
DEBUG_STATS_RL:                Vvel (DYNAMICS) S.D.=  1.38519122736794E-02
DEBUG_STATS_RL:                Wvel (DYNAMICS)  min= -1.02275225536878E-04
DEBUG_STATS_RL:                Wvel (DYNAMICS)  max=  1.12226020152235E-04
DEBUG_STATS_RL:                Wvel (DYNAMICS) mean= -1.43622671761251E-07
DEBUG_STATS_RL:                Wvel (DYNAMICS) S.D.=  1.14172116692044E-05
DEBUG_STATS_RL:               Theta (DYNAMICS)  min= -1.99077448140195E+00
DEBUG_STATS_RL:               Theta (DYNAMICS)  max=  3.03052479745611E+01
DEBUG_STATS_RL:               Theta (DYNAMICS) mean=  3.21719693473223E+00
DEBUG_STATS_RL:               Theta (DYNAMICS) S.D.=  5.86879161793097E+00
DEBUG_STATS_RL:                Salt (DYNAMICS)  min= -1.90819582357449E-17
DEBUG_STATS_RL:                Salt (DYNAMICS)  max=  3.74563540496249E+01
DEBUG_STATS_RL:                Salt (DYNAMICS) mean=  1.88448925880782E+01
DEBUG_STATS_RL:                Salt (DYNAMICS) S.D.=  1.73004118648647E+01
DEBUG_STATS_RL:                  Gu (DYNAMICS)  min= -1.36410629378590E-01
DEBUG_STATS_RL:                  Gu (DYNAMICS)  max=  1.69047497070713E-01
DEBUG_STATS_RL:                  Gu (DYNAMICS) mean=  5.13473281755896E-03
DEBUG_STATS_RL:                  Gu (DYNAMICS) S.D.=  2.49095071662094E-02
DEBUG_STATS_RL:                  Gv (DYNAMICS)  min= -1.02200450148303E-01
DEBUG_STATS_RL:                  Gv (DYNAMICS)  max=  1.22326258935226E-01
DEBUG_STATS_RL:                  Gv (DYNAMICS) mean=  3.52245185591501E-03
DEBUG_STATS_RL:                  Gv (DYNAMICS) S.D.=  1.48046366257997E-02
DEBUG_STATS_RL:               GuNm1 (DYNAMICS)  min= -8.92971816724960E-06
DEBUG_STATS_RL:               GuNm1 (DYNAMICS)  max=  8.59649863066822E-06
DEBUG_STATS_RL:               GuNm1 (DYNAMICS) mean= -1.36333977035517E-08
DEBUG_STATS_RL:               GuNm1 (DYNAMICS) S.D.=  1.17149468507378E-06
DEBUG_STATS_RL:               GvNm1 (DYNAMICS)  min= -9.65416844618173E-06
DEBUG_STATS_RL:               GvNm1 (DYNAMICS)  max=  1.63715872040535E-05
DEBUG_STATS_RL:               GvNm1 (DYNAMICS) mean=  7.47905151832181E-07
DEBUG_STATS_RL:               GvNm1 (DYNAMICS) S.D.=  2.58857450843538E-06
DEBUG_STATS_RL:               GtNm1 (DYNAMICS)  min= -4.56308640084241E-06
DEBUG_STATS_RL:               GtNm1 (DYNAMICS)  max=  2.75064641079051E-06
DEBUG_STATS_RL:               GtNm1 (DYNAMICS) mean=  9.70089045485067E-09
DEBUG_STATS_RL:               GtNm1 (DYNAMICS) S.D.=  1.96589331754461E-07
DEBUG_STATS_RL:               GsNm1 (DYNAMICS)  min= -4.63432417659112E-07
DEBUG_STATS_RL:               GsNm1 (DYNAMICS)  max=  3.16491265667069E-07
DEBUG_STATS_RL:               GsNm1 (DYNAMICS) mean=  2.37540431888982E-10
DEBUG_STATS_RL:               GsNm1 (DYNAMICS) S.D.=  1.84616836688898E-08
DEBUG_STATS_RL:    cg2d_b (SOLVE_FOR_PRESSURE)  min= -1.97404999014726E+04
DEBUG_STATS_RL:    cg2d_b (SOLVE_FOR_PRESSURE)  max=  2.37327348665930E+04
DEBUG_STATS_RL:    cg2d_b (SOLVE_FOR_PRESSURE) mean=  3.32833005556975E+00
DEBUG_STATS_RL:    cg2d_b (SOLVE_FOR_PRESSURE) S.D.=  3.62422230159103E+03
 cg2d: Sum(rhs),rhsMax =   3.24660605781583E-01  1.55882956867237E+00
(PID.TID 0000.0001)  cg2d: iter=     1 ; resid.=  8.60090546651631E-02
(PID.TID 0000.0001)  cg2d: iter=     2 ; resid.=  4.15895345100608E-02
(PID.TID 0000.0001)  cg2d: iter=     3 ; resid.=  3.68682048929685E-02
(PID.TID 0000.0001)  cg2d: iter=     4 ; resid.=  3.88322443487149E-02
(PID.TID 0000.0001)  cg2d: iter=     5 ; resid.=  3.58854848454320E-02
(PID.TID 0000.0001)  cg2d: iter=     6 ; resid.=  3.11227277558051E-02
(PID.TID 0000.0001)  cg2d: iter=     7 ; resid.=  2.55244373748756E-02
(PID.TID 0000.0001)  cg2d: iter=     8 ; resid.=  2.26337522900284E-02
(PID.TID 0000.0001)  cg2d: iter=     9 ; resid.=  1.99771415067436E-02
(PID.TID 0000.0001)  cg2d: iter=    10 ; resid.=  1.79897805084228E-02
(PID.TID 0000.0001)  cg2d: iter=    11 ; resid.=  1.53234426316046E-02
(PID.TID 0000.0001)  cg2d: iter=    12 ; resid.=  1.22304106030051E-02
(PID.TID 0000.0001)  cg2d: iter=    13 ; resid.=  9.60964868340958E-03
(PID.TID 0000.0001)  cg2d: iter=    14 ; resid.=  7.47212553593615E-03
(PID.TID 0000.0001)  cg2d: iter=    15 ; resid.=  6.29567857197035E-03
(PID.TID 0000.0001)  cg2d: iter=    16 ; resid.=  5.35858849165139E-03
(PID.TID 0000.0001)  cg2d: iter=    17 ; resid.=  4.87564365063006E-03
(PID.TID 0000.0001)  cg2d: iter=    18 ; resid.=  3.94453290765373E-03
(PID.TID 0000.0001)  cg2d: iter=    19 ; resid.=  3.32596811975771E-03
(PID.TID 0000.0001)  cg2d: iter=    20 ; resid.=  2.74687017149503E-03
(PID.TID 0000.0001)  cg2d: iter=    21 ; resid.=  2.14860495451006E-03
(PID.TID 0000.0001)  cg2d: iter=    22 ; resid.=  1.89298374348975E-03
(PID.TID 0000.0001)  cg2d: iter=    23 ; resid.=  1.68968388455117E-03
(PID.TID 0000.0001)  cg2d: iter=    24 ; resid.=  1.32790534482182E-03
(PID.TID 0000.0001)  cg2d: iter=    25 ; resid.=  1.00753831240212E-03
(PID.TID 0000.0001)  cg2d: iter=    26 ; resid.=  8.30200753425282E-04
(PID.TID 0000.0001)  cg2d: iter=    27 ; resid.=  7.75797910997956E-04
(PID.TID 0000.0001)  cg2d: iter=    28 ; resid.=  7.07553214593104E-04
(PID.TID 0000.0001)  cg2d: iter=    29 ; resid.=  6.10749726316843E-04
(PID.TID 0000.0001)  cg2d: iter=    30 ; resid.=  4.66953065992736E-04
(PID.TID 0000.0001)  cg2d: iter=    31 ; resid.=  3.81574882213220E-04
(PID.TID 0000.0001)  cg2d: iter=    32 ; resid.=  3.25883929598478E-04
(PID.TID 0000.0001)  cg2d: iter=    33 ; resid.=  2.69385705517609E-04
(PID.TID 0000.0001)  cg2d: iter=    34 ; resid.=  2.06162899884584E-04
(PID.TID 0000.0001)  cg2d: iter=    35 ; resid.=  1.61127402233696E-04
(PID.TID 0000.0001)  cg2d: iter=    36 ; resid.=  1.43675029278010E-04
(PID.TID 0000.0001)  cg2d: iter=    37 ; resid.=  1.22729051320294E-04
(PID.TID 0000.0001)  cg2d: iter=    38 ; resid.=  1.01578169379535E-04
(PID.TID 0000.0001)  cg2d: iter=    39 ; resid.=  8.78367520689045E-05
(PID.TID 0000.0001)  cg2d: iter=    40 ; resid.=  8.23946684076694E-05
(PID.TID 0000.0001)  cg2d: iter=    41 ; resid.=  7.52102346098234E-05
(PID.TID 0000.0001)  cg2d: iter=    42 ; resid.=  6.36000462287449E-05
(PID.TID 0000.0001)  cg2d: iter=    43 ; resid.=  5.30101325817948E-05
(PID.TID 0000.0001)  cg2d: iter=    44 ; resid.=  4.43696962326122E-05
(PID.TID 0000.0001)  cg2d: iter=    45 ; resid.=  3.65827656269886E-05
(PID.TID 0000.0001)  cg2d: iter=    46 ; resid.=  2.79713328261300E-05
(PID.TID 0000.0001)  cg2d: iter=    47 ; resid.=  2.03645259009701E-05
(PID.TID 0000.0001)  cg2d: iter=    48 ; resid.=  1.67136229908585E-05
(PID.TID 0000.0001)  cg2d: iter=    49 ; resid.=  1.43045707492318E-05
(PID.TID 0000.0001)  cg2d: iter=    50 ; resid.=  1.23000677972522E-05
(PID.TID 0000.0001)  cg2d: iter=    51 ; resid.=  1.01789604120052E-05
(PID.TID 0000.0001)  cg2d: iter=    52 ; resid.=  8.37794187857363E-06
(PID.TID 0000.0001)  cg2d: iter=    53 ; resid.=  6.86789073601164E-06
(PID.TID 0000.0001)  cg2d: iter=    54 ; resid.=  5.37414757570825E-06
(PID.TID 0000.0001)  cg2d: iter=    55 ; resid.=  3.92175424221237E-06
(PID.TID 0000.0001)  cg2d: iter=    56 ; resid.=  2.98449478405995E-06
(PID.TID 0000.0001)  cg2d: iter=    57 ; resid.=  2.40140592631642E-06
(PID.TID 0000.0001)  cg2d: iter=    58 ; resid.=  1.90201056538374E-06
(PID.TID 0000.0001)  cg2d: iter=    59 ; resid.=  1.50679128154697E-06
(PID.TID 0000.0001)  cg2d: iter=    60 ; resid.=  1.13103941024438E-06
(PID.TID 0000.0001)  cg2d: iter=    61 ; resid.=  9.44983279180140E-07
(PID.TID 0000.0001)  cg2d: iter=    62 ; resid.=  8.58893710680462E-07
(PID.TID 0000.0001)  cg2d: iter=    63 ; resid.=  6.89082055171698E-07
(PID.TID 0000.0001)  cg2d: iter=    64 ; resid.=  5.74563314157718E-07
(PID.TID 0000.0001)  cg2d: iter=    65 ; resid.=  4.70744806714589E-07
(PID.TID 0000.0001)  cg2d: iter=    66 ; resid.=  3.87355031825599E-07
(PID.TID 0000.0001)  cg2d: iter=    67 ; resid.=  2.97808375838902E-07
(PID.TID 0000.0001)  cg2d: iter=    68 ; resid.=  2.29512757871734E-07
(PID.TID 0000.0001)  cg2d: iter=    69 ; resid.=  1.82089985739357E-07
(PID.TID 0000.0001)  cg2d: iter=    70 ; resid.=  1.48373489771299E-07
(PID.TID 0000.0001)  cg2d: iter=    71 ; resid.=  1.19067909339277E-07
(PID.TID 0000.0001)  cg2d: iter=    72 ; resid.=  9.79002784859637E-08
(PID.TID 0000.0001)  cg2d: iter=    73 ; resid.=  8.46539509896477E-08
(PID.TID 0000.0001)  cg2d: iter=    74 ; resid.=  7.15619599365899E-08
(PID.TID 0000.0001)  cg2d: iter=    75 ; resid.=  6.23373675802424E-08
(PID.TID 0000.0001)  cg2d: iter=    76 ; resid.=  5.39931946201816E-08
(PID.TID 0000.0001)  cg2d: iter=    77 ; resid.=  4.45638702523573E-08
(PID.TID 0000.0001)  cg2d: iter=    78 ; resid.=  3.62774075432393E-08
(PID.TID 0000.0001)  cg2d: iter=    79 ; resid.=  3.04707076260755E-08
(PID.TID 0000.0001)  cg2d: iter=    80 ; resid.=  2.60289600911655E-08
(PID.TID 0000.0001)  cg2d: iter=    81 ; resid.=  2.15248988494400E-08
(PID.TID 0000.0001)  cg2d: iter=    82 ; resid.=  1.68332392680830E-08
(PID.TID 0000.0001)  cg2d: iter=    83 ; resid.=  1.29499438300812E-08
(PID.TID 0000.0001)  cg2d: iter=    84 ; resid.=  1.01440983178106E-08
(PID.TID 0000.0001)  cg2d: iter=    85 ; resid.=  8.27902130472494E-09
(PID.TID 0000.0001)  cg2d: iter=    86 ; resid.=  6.42392593614814E-09
(PID.TID 0000.0001)  cg2d: iter=    87 ; resid.=  5.26805794754478E-09
(PID.TID 0000.0001)  cg2d: iter=    88 ; resid.=  4.29988818648098E-09
(PID.TID 0000.0001)  cg2d: iter=    89 ; resid.=  3.71535028140171E-09
(PID.TID 0000.0001)  cg2d: iter=    90 ; resid.=  3.08066995073912E-09
(PID.TID 0000.0001)  cg2d: iter=    91 ; resid.=  2.48154910135545E-09
(PID.TID 0000.0001)  cg2d: iter=    92 ; resid.=  1.89023836034750E-09
(PID.TID 0000.0001)  cg2d: iter=    93 ; resid.=  1.33533255635056E-09
(PID.TID 0000.0001)  cg2d: iter=    94 ; resid.=  9.27987508626972E-10
(PID.TID 0000.0001)  cg2d: iter=    95 ; resid.=  6.95527543112829E-10
(PID.TID 0000.0001)  cg2d: iter=    96 ; resid.=  5.38348981037252E-10
(PID.TID 0000.0001)  cg2d: iter=    97 ; resid.=  4.42048653317647E-10
(PID.TID 0000.0001)  cg2d: iter=    98 ; resid.=  3.85328070376667E-10
(PID.TID 0000.0001)  cg2d: iter=    99 ; resid.=  3.21957644382494E-10
(PID.TID 0000.0001)  cg2d: iter=   100 ; resid.=  2.94831568794008E-10
(PID.TID 0000.0001)  cg2d: iter=   101 ; resid.=  2.74746381703165E-10
(PID.TID 0000.0001)  cg2d: iter=   102 ; resid.=  2.32272210208934E-10
(PID.TID 0000.0001)  cg2d: iter=   103 ; resid.=  1.69500057420181E-10
(PID.TID 0000.0001)  cg2d: iter=   104 ; resid.=  1.28657650282880E-10
(PID.TID 0000.0001)  cg2d: iter=   105 ; resid.=  1.06478221916118E-10
(PID.TID 0000.0001)  cg2d: iter=   106 ; resid.=  8.10796799112319E-11
(PID.TID 0000.0001)  cg2d: iter=   107 ; resid.=  5.74960777972150E-11
(PID.TID 0000.0001)  cg2d: iter=   108 ; resid.=  4.35175052504566E-11
(PID.TID 0000.0001)  cg2d: iter=   109 ; resid.=  3.44021870105569E-11
(PID.TID 0000.0001)  cg2d: iter=   110 ; resid.=  2.81465672779582E-11
(PID.TID 0000.0001)  cg2d: iter=   111 ; resid.=  2.29582599481416E-11
(PID.TID 0000.0001)  cg2d: iter=   112 ; resid.=  1.89747922707570E-11
(PID.TID 0000.0001)  cg2d: iter=   113 ; resid.=  1.52633974271813E-11
(PID.TID 0000.0001)  cg2d: iter=   114 ; resid.=  1.14544229267616E-11
(PID.TID 0000.0001)  cg2d: iter=   115 ; resid.=  8.34037346692368E-12
(PID.TID 0000.0001)  cg2d: iter=   116 ; resid.=  5.65435461892883E-12
(PID.TID 0000.0001)  cg2d: iter=   117 ; resid.=  4.18410615709609E-12
(PID.TID 0000.0001)  cg2d: iter=   118 ; resid.=  3.19657425005924E-12
(PID.TID 0000.0001)  cg2d: iter=   119 ; resid.=  2.29505085297747E-12
(PID.TID 0000.0001)  cg2d: iter=   120 ; resid.=  1.54192168126310E-12
(PID.TID 0000.0001)  cg2d: iter=   121 ; resid.=  1.05503939223432E-12
(PID.TID 0000.0001)  cg2d: iter=   122 ; resid.=  7.56121372343863E-13
(PID.TID 0000.0001)  cg2d: iter=   123 ; resid.=  5.69891735343145E-13
(PID.TID 0000.0001)  cg2d: iter=   124 ; resid.=  4.49142892891592E-13
(PID.TID 0000.0001)  cg2d: iter=   125 ; resid.=  3.55781807615621E-13
(PID.TID 0000.0001)  cg2d: iter=   126 ; resid.=  2.92928052854268E-13
(PID.TID 0000.0001)  cg2d: iter=   127 ; resid.=  2.27239933080326E-13
(PID.TID 0000.0001)  cg2d: iter=   128 ; resid.=  1.69098462455297E-13
(PID.TID 0000.0001)  cg2d: iter=   129 ; resid.=  1.31357137679207E-13
(PID.TID 0000.0001)  cg2d: iter=   130 ; resid.=  1.04093560364143E-13
(PID.TID 0000.0001)  cg2d: iter=   131 ; resid.=  8.20404888366074E-14
DEBUG_STATS_RL:    cg2d_x (SOLVE_FOR_PRESSURE)  min= -1.69118999438251E+01
DEBUG_STATS_RL:    cg2d_x (SOLVE_FOR_PRESSURE)  max=  8.06629343996681E+00
DEBUG_STATS_RL:    cg2d_x (SOLVE_FOR_PRESSURE) mean= -1.70257069061516E+00
DEBUG_STATS_RL:    cg2d_x (SOLVE_FOR_PRESSURE) S.D.=  6.56383971094909E+00
(PID.TID 0000.0001)      cg2d_init_res =   3.22228897562206E-01
(PID.TID 0000.0001)      cg2d_iters(min,last) =      -1     131
(PID.TID 0000.0001)      cg2d_last_res =   8.20404888366074E-14
(PID.TID 0000.0001) // =======================================================
(PID.TID 0000.0001) // Begin MONITOR dynamic field statistics
(PID.TID 0000.0001) // =======================================================
(PID.TID 0000.0001) %MON time_tsnumber                =                    46
(PID.TID 0000.0001) %MON time_secondsf                =   3.9744000000000E+06
(PID.TID 0000.0001) %MON dynstat_eta_max              =   8.2225213455317E-01
(PID.TID 0000.0001) %MON dynstat_eta_min              =  -1.7239449484022E+00
(PID.TID 0000.0001) %MON dynstat_eta_mean             =  -3.4726997136845E-03
(PID.TID 0000.0001) %MON dynstat_eta_sd               =   5.7737803637661E-01
(PID.TID 0000.0001) %MON dynstat_eta_del2             =   2.1915966902266E-03
(PID.TID 0000.0001) %MON dynstat_uvel_max             =   1.6777071872059E-01
(PID.TID 0000.0001) %MON dynstat_uvel_min             =  -1.3607900230069E-01
(PID.TID 0000.0001) %MON dynstat_uvel_mean            =   1.9159036030453E-03
(PID.TID 0000.0001) %MON dynstat_uvel_sd              =   1.4614952792893E-02
(PID.TID 0000.0001) %MON dynstat_uvel_del2            =   8.5973888678596E-05
(PID.TID 0000.0001) %MON dynstat_vvel_max             =   1.2161825863392E-01
(PID.TID 0000.0001) %MON dynstat_vvel_min             =  -1.0481082006377E-01
(PID.TID 0000.0001) %MON dynstat_vvel_mean            =   4.1792897308626E-05
(PID.TID 0000.0001) %MON dynstat_vvel_sd              =   8.6080113835028E-03
(PID.TID 0000.0001) %MON dynstat_vvel_del2            =   7.5107689757108E-05
(PID.TID 0000.0001) %MON dynstat_wvel_max             =   1.2376622676663E-04
(PID.TID 0000.0001) %MON dynstat_wvel_min             =  -9.6099630985649E-05
(PID.TID 0000.0001) %MON dynstat_wvel_mean            =   6.7904760195933E-23
(PID.TID 0000.0001) %MON dynstat_wvel_sd              =   1.2846898401791E-05
(PID.TID 0000.0001) %MON dynstat_wvel_del2            =   1.3016646460452E-07
(PID.TID 0000.0001) %MON dynstat_theta_max            =   3.0305247974561E+01
(PID.TID 0000.0001) %MON dynstat_theta_min            =  -1.9907744814020E+00
(PID.TID 0000.0001) %MON dynstat_theta_mean           =   3.6224222394158E+00
(PID.TID 0000.0001) %MON dynstat_theta_sd             =   4.4205719369532E+00
(PID.TID 0000.0001) %MON dynstat_theta_del2           =   4.7386808071702E-03
(PID.TID 0000.0001) %MON dynstat_salt_max             =   3.7456354049625E+01
(PID.TID 0000.0001) %MON dynstat_salt_min             =   2.9839549158983E+01
(PID.TID 0000.0001) %MON dynstat_salt_mean            =   3.4717981870523E+01
(PID.TID 0000.0001) %MON dynstat_salt_sd              =   2.9634988994016E-01
(PID.TID 0000.0001) %MON dynstat_salt_del2            =   9.8537522073631E-04
(PID.TID 0000.0001) %MON dynstat_sst_max              =   3.0305247974561E+01
(PID.TID 0000.0001) %MON dynstat_sst_min              =  -1.9907744814020E+00
(PID.TID 0000.0001) %MON dynstat_sst_mean             =   1.8898137047343E+01
(PID.TID 0000.0001) %MON dynstat_sst_sd               =   9.0104010168230E+00
(PID.TID 0000.0001) %MON dynstat_sst_del2             =   2.7213038659654E-02
(PID.TID 0000.0001) %MON dynstat_sss_max              =   3.7435011367877E+01
(PID.TID 0000.0001) %MON dynstat_sss_min              =   2.9839549158983E+01
(PID.TID 0000.0001) %MON dynstat_sss_mean             =   3.4844012389967E+01
(PID.TID 0000.0001) %MON dynstat_sss_sd               =   9.7736266949315E-01
(PID.TID 0000.0001) %MON dynstat_sss_del2             =   7.8833418125346E-03
(PID.TID 0000.0001) %MON forcing_qnet_max             =   3.5845223999023E+02
(PID.TID 0000.0001) %MON forcing_qnet_min             =  -1.7283396911621E+02
(PID.TID 0000.0001) %MON forcing_qnet_mean            =  -1.3965250978943E+01
(PID.TID 0000.0001) %MON forcing_qnet_sd              =   7.9600844041117E+01
(PID.TID 0000.0001) %MON forcing_qnet_del2            =   9.4924046503394E-01
(PID.TID 0000.0001) %MON forcing_qsw_max              =   0.0000000000000E+00
(PID.TID 0000.0001) %MON forcing_qsw_min              =   0.0000000000000E+00
(PID.TID 0000.0001) %MON forcing_qsw_mean             =   0.0000000000000E+00
(PID.TID 0000.0001) %MON forcing_qsw_sd               =   0.0000000000000E+00
(PID.TID 0000.0001) %MON forcing_qsw_del2             =   0.0000000000000E+00
(PID.TID 0000.0001) %MON forcing_empmr_max            =   7.2751547008920E-05
(PID.TID 0000.0001) %MON forcing_empmr_min            =  -7.8545284054599E-05
(PID.TID 0000.0001) %MON forcing_empmr_mean           =   9.4340897990939E-07
(PID.TID 0000.0001) %MON forcing_empmr_sd             =   2.7981615340984E-05
(PID.TID 0000.0001) %MON forcing_empmr_del2           =   3.5607128030285E-07
(PID.TID 0000.0001) %MON forcing_fu_max               =   3.0463552474976E-01
(PID.TID 0000.0001) %MON forcing_fu_min               =  -2.1965765953064E-01
(PID.TID 0000.0001) %MON forcing_fu_mean              =   1.7630741616636E-02
(PID.TID 0000.0001) %MON forcing_fu_sd                =   9.3014374943535E-02
(PID.TID 0000.0001) %MON forcing_fu_del2              =   7.4725854650669E-04
(PID.TID 0000.0001) %MON forcing_fv_max               =   2.0158496499062E-01
(PID.TID 0000.0001) %MON forcing_fv_min               =  -1.9967925548553E-01
(PID.TID 0000.0001) %MON forcing_fv_mean              =  -7.2167249409603E-03
(PID.TID 0000.0001) %MON forcing_fv_sd                =   4.5051757763558E-02
(PID.TID 0000.0001) %MON forcing_fv_del2              =   5.4153881017288E-04
(PID.TID 0000.0001) %MON trAdv_CFL_u_max              =   5.0336351053303E-02
(PID.TID 0000.0001) %MON trAdv_CFL_v_max              =   2.7412875650600E-02
(PID.TID 0000.0001) %MON trAdv_CFL_w_max              =   3.2088188610215E-02
(PID.TID 0000.0001) %MON advcfl_uvel_max              =   4.8998054560598E-02
(PID.TID 0000.0001) %MON advcfl_vvel_max              =   2.3628477130205E-02
(PID.TID 0000.0001) %MON advcfl_wvel_max              =   3.7988452129440E-02
(PID.TID 0000.0001) %MON advcfl_W_hf_max              =   4.6128834728606E-02
(PID.TID 0000.0001) %MON pe_b_mean                    =   4.2659663856306E-04
(PID.TID 0000.0001) %MON ke_max                       =   1.4458397477791E-02
(PID.TID 0000.0001) %MON ke_mean                      =   1.3197448929265E-04
(PID.TID 0000.0001) %MON ke_vol                       =   1.3226782436723E+18
(PID.TID 0000.0001) %MON vort_r_min                   =  -4.7743968945055E-07
(PID.TID 0000.0001) %MON vort_r_max                   =   3.8516653914855E-07
(PID.TID 0000.0001) %MON vort_a_mean                  =  -2.5274807084268E-05
(PID.TID 0000.0001) %MON vort_a_sd                    =   7.3604610393791E-05
(PID.TID 0000.0001) %MON vort_p_mean                  =  -3.1845655404869E-05
(PID.TID 0000.0001) %MON vort_p_sd                    =   1.3162444718069E-04
(PID.TID 0000.0001) %MON surfExpan_theta_mean         =   2.9707127141274E-07
(PID.TID 0000.0001) %MON surfExpan_salt_mean          =   6.0831459853265E-09
(PID.TID 0000.0001) // =======================================================
(PID.TID 0000.0001) // End MONITOR dynamic field statistics
(PID.TID 0000.0001) // =======================================================
 EXTERNAL_FIELDS_LOAD,        46 : iP,iLd,i0,i1=    2    3    2    3 ; Wght=  0.9666666667  0.0333333333
 EXTERNAL_FIELDS_LOAD: (fu0,1),fu,fv= -1.4435E-02 -2.7199E-02 -1.4860E-02 -1.7067E-02
 EXTERNAL_FIELDS_LOAD: SST,SSS,Q,E-P= -5.2026E-01  3.4426E+01  2.3964E+02  8.4007E-06
DEBUG_STATS_RL:          Uvel (THERMODYNAMICS)  min= -1.36079002300691E-01
DEBUG_STATS_RL:          Uvel (THERMODYNAMICS)  max=  1.67770718720588E-01
DEBUG_STATS_RL:          Uvel (THERMODYNAMICS) mean=  5.28889830473367E-03
DEBUG_STATS_RL:          Uvel (THERMODYNAMICS) S.D.=  2.45607669442199E-02
DEBUG_STATS_RL:          Vvel (THERMODYNAMICS)  min= -1.04810820063771E-01
DEBUG_STATS_RL:          Vvel (THERMODYNAMICS)  max=  1.21618258633917E-01
DEBUG_STATS_RL:          Vvel (THERMODYNAMICS) mean=  1.08616792796696E-03
DEBUG_STATS_RL:          Vvel (THERMODYNAMICS) S.D.=  1.38933237881595E-02
DEBUG_STATS_RL:          Wvel (THERMODYNAMICS)  min= -9.60996309856494E-05
DEBUG_STATS_RL:          Wvel (THERMODYNAMICS)  max=  1.23766226766627E-04
DEBUG_STATS_RL:          Wvel (THERMODYNAMICS) mean= -9.66234132346617E-08
DEBUG_STATS_RL:          Wvel (THERMODYNAMICS) S.D.=  1.13185606494381E-05
DEBUG_STATS_RL:         Theta (THERMODYNAMICS)  min= -1.98868045092027E+00
DEBUG_STATS_RL:         Theta (THERMODYNAMICS)  max=  3.03218779248711E+01
DEBUG_STATS_RL:         Theta (THERMODYNAMICS) mean=  3.21756501213510E+00
DEBUG_STATS_RL:         Theta (THERMODYNAMICS) S.D.=  5.86955836666394E+00
DEBUG_STATS_RL:          Salt (THERMODYNAMICS)  min= -1.90819582357449E-17
DEBUG_STATS_RL:          Salt (THERMODYNAMICS)  max=  3.74569227554192E+01
DEBUG_STATS_RL:          Salt (THERMODYNAMICS) mean=  1.88449056131644E+01
DEBUG_STATS_RL:          Salt (THERMODYNAMICS) S.D.=  1.73004242003304E+01
DEBUG_STATS_RL:         GtNm1 (THERMODYNAMICS)  min= -4.73417194379642E-06
DEBUG_STATS_RL:         GtNm1 (THERMODYNAMICS)  max=  2.81531971078968E-06
DEBUG_STATS_RL:         GtNm1 (THERMODYNAMICS) mean=  8.63239865415817E-09
DEBUG_STATS_RL:         GtNm1 (THERMODYNAMICS) S.D.=  1.95945708805892E-07
DEBUG_STATS_RL:         GsNm1 (THERMODYNAMICS)  min= -4.93911935081819E-07
DEBUG_STATS_RL:         GsNm1 (THERMODYNAMICS)  max=  3.26903591288802E-07
DEBUG_STATS_RL:         GsNm1 (THERMODYNAMICS) mean=  2.26928862100957E-10
DEBUG_STATS_RL:         GsNm1 (THERMODYNAMICS) S.D.=  1.86400300243290E-08
DEBUG_STATS_RL:                EtaN (DYNAMICS)  min= -1.72394494840220E+00
DEBUG_STATS_RL:                EtaN (DYNAMICS)  max=  8.22252134553166E-01
DEBUG_STATS_RL:                EtaN (DYNAMICS) mean= -1.73554606586664E-01
DEBUG_STATS_RL:                EtaN (DYNAMICS) S.D.=  6.69096810494299E-01
DEBUG_STATS_RL:                Uvel (DYNAMICS)  min= -1.36079002300691E-01
DEBUG_STATS_RL:                Uvel (DYNAMICS)  max=  1.67770718720588E-01
DEBUG_STATS_RL:                Uvel (DYNAMICS) mean=  5.28889830473367E-03
DEBUG_STATS_RL:                Uvel (DYNAMICS) S.D.=  2.45607669442199E-02
DEBUG_STATS_RL:                Vvel (DYNAMICS)  min= -1.04810820063771E-01
DEBUG_STATS_RL:                Vvel (DYNAMICS)  max=  1.21618258633917E-01
DEBUG_STATS_RL:                Vvel (DYNAMICS) mean=  1.08616792796696E-03
DEBUG_STATS_RL:                Vvel (DYNAMICS) S.D.=  1.38933237881595E-02
DEBUG_STATS_RL:                Wvel (DYNAMICS)  min= -9.60996309856494E-05
DEBUG_STATS_RL:                Wvel (DYNAMICS)  max=  1.23766226766627E-04
DEBUG_STATS_RL:                Wvel (DYNAMICS) mean= -9.66234132346617E-08
DEBUG_STATS_RL:                Wvel (DYNAMICS) S.D.=  1.13185606494381E-05
DEBUG_STATS_RL:               Theta (DYNAMICS)  min= -1.98868045092027E+00
DEBUG_STATS_RL:               Theta (DYNAMICS)  max=  3.03218779248711E+01
DEBUG_STATS_RL:               Theta (DYNAMICS) mean=  3.21756501213510E+00
DEBUG_STATS_RL:               Theta (DYNAMICS) S.D.=  5.86955836666394E+00
DEBUG_STATS_RL:                Salt (DYNAMICS)  min= -1.90819582357449E-17
DEBUG_STATS_RL:                Salt (DYNAMICS)  max=  3.74569227554192E+01
DEBUG_STATS_RL:                Salt (DYNAMICS) mean=  1.88449056131644E+01
DEBUG_STATS_RL:                Salt (DYNAMICS) S.D.=  1.73004242003304E+01
DEBUG_STATS_RL:                  Gu (DYNAMICS)  min= -1.34411820439434E-01
DEBUG_STATS_RL:                  Gu (DYNAMICS)  max=  1.74996090626043E-01
DEBUG_STATS_RL:                  Gu (DYNAMICS) mean=  5.28696025671891E-03
DEBUG_STATS_RL:                  Gu (DYNAMICS) S.D.=  2.48858061376888E-02
DEBUG_STATS_RL:                  Gv (DYNAMICS)  min= -1.00314208815262E-01
DEBUG_STATS_RL:                  Gv (DYNAMICS)  max=  1.26181353123830E-01
DEBUG_STATS_RL:                  Gv (DYNAMICS) mean=  3.69786334770696E-03
DEBUG_STATS_RL:                  Gv (DYNAMICS) S.D.=  1.49915085437641E-02
DEBUG_STATS_RL:               GuNm1 (DYNAMICS)  min= -9.04676842210482E-06
DEBUG_STATS_RL:               GuNm1 (DYNAMICS)  max=  8.65598397644433E-06
DEBUG_STATS_RL:               GuNm1 (DYNAMICS) mean= -1.24835829809322E-08
DEBUG_STATS_RL:               GuNm1 (DYNAMICS) S.D.=  1.17259896600316E-06
DEBUG_STATS_RL:               GvNm1 (DYNAMICS)  min= -9.61260548205986E-06
DEBUG_STATS_RL:               GvNm1 (DYNAMICS)  max=  1.63955504519703E-05
DEBUG_STATS_RL:               GvNm1 (DYNAMICS) mean=  7.47627491291706E-07
DEBUG_STATS_RL:               GvNm1 (DYNAMICS) S.D.=  2.59033155260814E-06
DEBUG_STATS_RL:               GtNm1 (DYNAMICS)  min= -4.73417194379642E-06
DEBUG_STATS_RL:               GtNm1 (DYNAMICS)  max=  2.81531971078968E-06
DEBUG_STATS_RL:               GtNm1 (DYNAMICS) mean=  8.63239865415817E-09
DEBUG_STATS_RL:               GtNm1 (DYNAMICS) S.D.=  1.95945708805892E-07
DEBUG_STATS_RL:               GsNm1 (DYNAMICS)  min= -4.93911935081819E-07
DEBUG_STATS_RL:               GsNm1 (DYNAMICS)  max=  3.26903591288802E-07
DEBUG_STATS_RL:               GsNm1 (DYNAMICS) mean=  2.26928862100957E-10
DEBUG_STATS_RL:               GsNm1 (DYNAMICS) S.D.=  1.86400300243290E-08
DEBUG_STATS_RL:    cg2d_b (SOLVE_FOR_PRESSURE)  min= -1.98327483227559E+04
DEBUG_STATS_RL:    cg2d_b (SOLVE_FOR_PRESSURE)  max=  2.42251712502820E+04
DEBUG_STATS_RL:    cg2d_b (SOLVE_FOR_PRESSURE) mean=  3.40276287361700E+00
DEBUG_STATS_RL:    cg2d_b (SOLVE_FOR_PRESSURE) S.D.=  3.63875428184580E+03
 cg2d: Sum(rhs),rhsMax =   3.25174008927988E-01  1.59117410881490E+00
(PID.TID 0000.0001)  cg2d: iter=     1 ; resid.=  8.48449303727570E-02
(PID.TID 0000.0001)  cg2d: iter=     2 ; resid.=  4.25691574992444E-02
(PID.TID 0000.0001)  cg2d: iter=     3 ; resid.=  3.96912297147793E-02
(PID.TID 0000.0001)  cg2d: iter=     4 ; resid.=  4.26532682086124E-02
(PID.TID 0000.0001)  cg2d: iter=     5 ; resid.=  3.92729221250318E-02
(PID.TID 0000.0001)  cg2d: iter=     6 ; resid.=  3.39685868501863E-02
(PID.TID 0000.0001)  cg2d: iter=     7 ; resid.=  2.79621765712723E-02
(PID.TID 0000.0001)  cg2d: iter=     8 ; resid.=  2.39564747757344E-02
(PID.TID 0000.0001)  cg2d: iter=     9 ; resid.=  2.03592662352189E-02
(PID.TID 0000.0001)  cg2d: iter=    10 ; resid.=  1.80023037189373E-02
(PID.TID 0000.0001)  cg2d: iter=    11 ; resid.=  1.52146148277385E-02
(PID.TID 0000.0001)  cg2d: iter=    12 ; resid.=  1.21160542033370E-02
(PID.TID 0000.0001)  cg2d: iter=    13 ; resid.=  9.48069028579046E-03
(PID.TID 0000.0001)  cg2d: iter=    14 ; resid.=  7.50775579459859E-03
(PID.TID 0000.0001)  cg2d: iter=    15 ; resid.=  6.53942686346546E-03
(PID.TID 0000.0001)  cg2d: iter=    16 ; resid.=  5.55937658025100E-03
(PID.TID 0000.0001)  cg2d: iter=    17 ; resid.=  4.97230159096571E-03
(PID.TID 0000.0001)  cg2d: iter=    18 ; resid.=  4.07901853134371E-03
(PID.TID 0000.0001)  cg2d: iter=    19 ; resid.=  3.54901661662534E-03
(PID.TID 0000.0001)  cg2d: iter=    20 ; resid.=  2.92296705701099E-03
(PID.TID 0000.0001)  cg2d: iter=    21 ; resid.=  2.26173339985136E-03
(PID.TID 0000.0001)  cg2d: iter=    22 ; resid.=  1.99856132264922E-03
(PID.TID 0000.0001)  cg2d: iter=    23 ; resid.=  1.78980008498803E-03
(PID.TID 0000.0001)  cg2d: iter=    24 ; resid.=  1.38008699922465E-03
(PID.TID 0000.0001)  cg2d: iter=    25 ; resid.=  1.03536607335991E-03
(PID.TID 0000.0001)  cg2d: iter=    26 ; resid.=  8.55625403885571E-04
(PID.TID 0000.0001)  cg2d: iter=    27 ; resid.=  7.96203168200922E-04
(PID.TID 0000.0001)  cg2d: iter=    28 ; resid.=  7.13290676202530E-04
(PID.TID 0000.0001)  cg2d: iter=    29 ; resid.=  6.08232157557328E-04
(PID.TID 0000.0001)  cg2d: iter=    30 ; resid.=  4.62765363399916E-04
(PID.TID 0000.0001)  cg2d: iter=    31 ; resid.=  3.79544394101943E-04
(PID.TID 0000.0001)  cg2d: iter=    32 ; resid.=  3.23131471937647E-04
(PID.TID 0000.0001)  cg2d: iter=    33 ; resid.=  2.63024842550775E-04
(PID.TID 0000.0001)  cg2d: iter=    34 ; resid.=  2.04650278280078E-04
(PID.TID 0000.0001)  cg2d: iter=    35 ; resid.=  1.62513794341224E-04
(PID.TID 0000.0001)  cg2d: iter=    36 ; resid.=  1.45678898818417E-04
(PID.TID 0000.0001)  cg2d: iter=    37 ; resid.=  1.26149272480991E-04
(PID.TID 0000.0001)  cg2d: iter=    38 ; resid.=  1.06774949477483E-04
(PID.TID 0000.0001)  cg2d: iter=    39 ; resid.=  9.32358110804324E-05
(PID.TID 0000.0001)  cg2d: iter=    40 ; resid.=  8.60934320069510E-05
(PID.TID 0000.0001)  cg2d: iter=    41 ; resid.=  7.57274800585616E-05
(PID.TID 0000.0001)  cg2d: iter=    42 ; resid.=  6.47325210005096E-05
(PID.TID 0000.0001)  cg2d: iter=    43 ; resid.=  5.54101920715967E-05
(PID.TID 0000.0001)  cg2d: iter=    44 ; resid.=  4.55706575644464E-05
(PID.TID 0000.0001)  cg2d: iter=    45 ; resid.=  3.65725452612034E-05
(PID.TID 0000.0001)  cg2d: iter=    46 ; resid.=  2.81520530384314E-05
(PID.TID 0000.0001)  cg2d: iter=    47 ; resid.=  2.12668929534341E-05
(PID.TID 0000.0001)  cg2d: iter=    48 ; resid.=  1.80304821831156E-05
(PID.TID 0000.0001)  cg2d: iter=    49 ; resid.=  1.54454957702016E-05
(PID.TID 0000.0001)  cg2d: iter=    50 ; resid.=  1.34122806135798E-05
(PID.TID 0000.0001)  cg2d: iter=    51 ; resid.=  1.14198479769762E-05
(PID.TID 0000.0001)  cg2d: iter=    52 ; resid.=  9.52221093471543E-06
(PID.TID 0000.0001)  cg2d: iter=    53 ; resid.=  7.76271234989815E-06
(PID.TID 0000.0001)  cg2d: iter=    54 ; resid.=  6.01429007289717E-06
(PID.TID 0000.0001)  cg2d: iter=    55 ; resid.=  4.41841152435309E-06
(PID.TID 0000.0001)  cg2d: iter=    56 ; resid.=  3.43613815425741E-06
(PID.TID 0000.0001)  cg2d: iter=    57 ; resid.=  2.77784156775450E-06
(PID.TID 0000.0001)  cg2d: iter=    58 ; resid.=  2.22564464035996E-06
(PID.TID 0000.0001)  cg2d: iter=    59 ; resid.=  1.82047100503227E-06
(PID.TID 0000.0001)  cg2d: iter=    60 ; resid.=  1.40335964182403E-06
(PID.TID 0000.0001)  cg2d: iter=    61 ; resid.=  1.17882202939329E-06
(PID.TID 0000.0001)  cg2d: iter=    62 ; resid.=  1.04027093305138E-06
(PID.TID 0000.0001)  cg2d: iter=    63 ; resid.=  7.98195578540308E-07
(PID.TID 0000.0001)  cg2d: iter=    64 ; resid.=  6.26378325953804E-07
(PID.TID 0000.0001)  cg2d: iter=    65 ; resid.=  4.99908676460958E-07
(PID.TID 0000.0001)  cg2d: iter=    66 ; resid.=  4.00820254129163E-07
(PID.TID 0000.0001)  cg2d: iter=    67 ; resid.=  2.92951401111532E-07
(PID.TID 0000.0001)  cg2d: iter=    68 ; resid.=  2.15753886936939E-07
(PID.TID 0000.0001)  cg2d: iter=    69 ; resid.=  1.64719104002824E-07
(PID.TID 0000.0001)  cg2d: iter=    70 ; resid.=  1.29581519999113E-07
(PID.TID 0000.0001)  cg2d: iter=    71 ; resid.=  9.84144613076554E-08
(PID.TID 0000.0001)  cg2d: iter=    72 ; resid.=  7.56593606556278E-08
(PID.TID 0000.0001)  cg2d: iter=    73 ; resid.=  6.00489636187751E-08
(PID.TID 0000.0001)  cg2d: iter=    74 ; resid.=  4.67597636403411E-08
(PID.TID 0000.0001)  cg2d: iter=    75 ; resid.=  3.85293723867315E-08
(PID.TID 0000.0001)  cg2d: iter=    76 ; resid.=  3.26649865286839E-08
(PID.TID 0000.0001)  cg2d: iter=    77 ; resid.=  2.65577427762398E-08
(PID.TID 0000.0001)  cg2d: iter=    78 ; resid.=  2.08957802463196E-08
(PID.TID 0000.0001)  cg2d: iter=    79 ; resid.=  1.71309567541983E-08
(PID.TID 0000.0001)  cg2d: iter=    80 ; resid.=  1.48668620420106E-08
(PID.TID 0000.0001)  cg2d: iter=    81 ; resid.=  1.27626718416581E-08
(PID.TID 0000.0001)  cg2d: iter=    82 ; resid.=  1.03583984536381E-08
(PID.TID 0000.0001)  cg2d: iter=    83 ; resid.=  8.12755138740458E-09
(PID.TID 0000.0001)  cg2d: iter=    84 ; resid.=  6.53942678937116E-09
(PID.TID 0000.0001)  cg2d: iter=    85 ; resid.=  5.60957540629395E-09
(PID.TID 0000.0001)  cg2d: iter=    86 ; resid.=  4.43058440732282E-09
(PID.TID 0000.0001)  cg2d: iter=    87 ; resid.=  3.60830369073272E-09
(PID.TID 0000.0001)  cg2d: iter=    88 ; resid.=  2.97161070351802E-09
(PID.TID 0000.0001)  cg2d: iter=    89 ; resid.=  2.69354955081249E-09
(PID.TID 0000.0001)  cg2d: iter=    90 ; resid.=  2.36572174883086E-09
(PID.TID 0000.0001)  cg2d: iter=    91 ; resid.=  2.00190159796078E-09
(PID.TID 0000.0001)  cg2d: iter=    92 ; resid.=  1.57176845675373E-09
(PID.TID 0000.0001)  cg2d: iter=    93 ; resid.=  1.11736121961434E-09
(PID.TID 0000.0001)  cg2d: iter=    94 ; resid.=  7.79345697713779E-10
(PID.TID 0000.0001)  cg2d: iter=    95 ; resid.=  5.90918794864253E-10
(PID.TID 0000.0001)  cg2d: iter=    96 ; resid.=  4.53584589075154E-10
(PID.TID 0000.0001)  cg2d: iter=    97 ; resid.=  3.60974103646843E-10
(PID.TID 0000.0001)  cg2d: iter=    98 ; resid.=  3.13998737868353E-10
(PID.TID 0000.0001)  cg2d: iter=    99 ; resid.=  2.71219622262736E-10
(PID.TID 0000.0001)  cg2d: iter=   100 ; resid.=  2.57329438922379E-10
(PID.TID 0000.0001)  cg2d: iter=   101 ; resid.=  2.49142206243853E-10
(PID.TID 0000.0001)  cg2d: iter=   102 ; resid.=  2.13700358805076E-10
(PID.TID 0000.0001)  cg2d: iter=   103 ; resid.=  1.56919474886374E-10
(PID.TID 0000.0001)  cg2d: iter=   104 ; resid.=  1.19749412871346E-10
(PID.TID 0000.0001)  cg2d: iter=   105 ; resid.=  1.02535735429882E-10
(PID.TID 0000.0001)  cg2d: iter=   106 ; resid.=  8.04755274495058E-11
(PID.TID 0000.0001)  cg2d: iter=   107 ; resid.=  5.84387961870778E-11
(PID.TID 0000.0001)  cg2d: iter=   108 ; resid.=  4.55086944093495E-11
(PID.TID 0000.0001)  cg2d: iter=   109 ; resid.=  3.66082194220848E-11
(PID.TID 0000.0001)  cg2d: iter=   110 ; resid.=  3.07379942865422E-11
(PID.TID 0000.0001)  cg2d: iter=   111 ; resid.=  2.45959931391647E-11
(PID.TID 0000.0001)  cg2d: iter=   112 ; resid.=  1.96545772555657E-11
(PID.TID 0000.0001)  cg2d: iter=   113 ; resid.=  1.53735030912602E-11
(PID.TID 0000.0001)  cg2d: iter=   114 ; resid.=  1.13727182063409E-11
(PID.TID 0000.0001)  cg2d: iter=   115 ; resid.=  8.35121607268192E-12
(PID.TID 0000.0001)  cg2d: iter=   116 ; resid.=  5.81371703377456E-12
(PID.TID 0000.0001)  cg2d: iter=   117 ; resid.=  4.37243241598734E-12
(PID.TID 0000.0001)  cg2d: iter=   118 ; resid.=  3.39519854331158E-12
(PID.TID 0000.0001)  cg2d: iter=   119 ; resid.=  2.54363672199323E-12
(PID.TID 0000.0001)  cg2d: iter=   120 ; resid.=  1.79846538095161E-12
(PID.TID 0000.0001)  cg2d: iter=   121 ; resid.=  1.27671684118016E-12
(PID.TID 0000.0001)  cg2d: iter=   122 ; resid.=  9.36266889900481E-13
(PID.TID 0000.0001)  cg2d: iter=   123 ; resid.=  7.21540280850257E-13
(PID.TID 0000.0001)  cg2d: iter=   124 ; resid.=  5.80696716177405E-13
(PID.TID 0000.0001)  cg2d: iter=   125 ; resid.=  4.62039943314875E-13
(PID.TID 0000.0001)  cg2d: iter=   126 ; resid.=  3.63645914141748E-13
(PID.TID 0000.0001)  cg2d: iter=   127 ; resid.=  2.67493955208338E-13
(PID.TID 0000.0001)  cg2d: iter=   128 ; resid.=  1.87547845427330E-13
(PID.TID 0000.0001)  cg2d: iter=   129 ; resid.=  1.38089959866152E-13
(PID.TID 0000.0001)  cg2d: iter=   130 ; resid.=  1.06251642221247E-13
(PID.TID 0000.0001)  cg2d: iter=   131 ; resid.=  8.28818769282014E-14
DEBUG_STATS_RL:    cg2d_x (SOLVE_FOR_PRESSURE)  min= -1.72080878862603E+01
DEBUG_STATS_RL:    cg2d_x (SOLVE_FOR_PRESSURE)  max=  8.08996713314771E+00
DEBUG_STATS_RL:    cg2d_x (SOLVE_FOR_PRESSURE) mean= -1.71179753083972E+00
DEBUG_STATS_RL:    cg2d_x (SOLVE_FOR_PRESSURE) S.D.=  6.61386120235440E+00
(PID.TID 0000.0001)      cg2d_init_res =   3.11660360062593E-01
(PID.TID 0000.0001)      cg2d_iters(min,last) =      -1     131
(PID.TID 0000.0001)      cg2d_last_res =   8.28818769282014E-14
(PID.TID 0000.0001) // =======================================================
(PID.TID 0000.0001) // Begin MONITOR dynamic field statistics
(PID.TID 0000.0001) // =======================================================
(PID.TID 0000.0001) %MON time_tsnumber                =                    47
(PID.TID 0000.0001) %MON time_secondsf                =   4.0608000000000E+06
(PID.TID 0000.0001) %MON dynstat_eta_max              =   8.2466535506090E-01
(PID.TID 0000.0001) %MON dynstat_eta_min              =  -1.7541373992111E+00
(PID.TID 0000.0001) %MON dynstat_eta_mean             =  -3.5503611299514E-03
(PID.TID 0000.0001) %MON dynstat_eta_sd               =   5.8198610539119E-01
(PID.TID 0000.0001) %MON dynstat_eta_del2             =   2.2050925927963E-03
(PID.TID 0000.0001) %MON dynstat_uvel_max             =   1.7333462361442E-01
(PID.TID 0000.0001) %MON dynstat_uvel_min             =  -1.3407420513846E-01
(PID.TID 0000.0001) %MON dynstat_uvel_mean            =   1.9934976756704E-03
(PID.TID 0000.0001) %MON dynstat_uvel_sd              =   1.4655355753109E-02
(PID.TID 0000.0001) %MON dynstat_uvel_del2            =   8.5917688570153E-05
(PID.TID 0000.0001) %MON dynstat_vvel_max             =   1.2544875605542E-01
(PID.TID 0000.0001) %MON dynstat_vvel_min             =  -1.0227323381888E-01
(PID.TID 0000.0001) %MON dynstat_vvel_mean            =   3.3472821024915E-05
(PID.TID 0000.0001) %MON dynstat_vvel_sd              =   8.5589449278701E-03
(PID.TID 0000.0001) %MON dynstat_vvel_del2            =   7.4849061907947E-05
(PID.TID 0000.0001) %MON dynstat_wvel_max             =   1.3306033402680E-04
(PID.TID 0000.0001) %MON dynstat_wvel_min             =  -8.9558255628924E-05
(PID.TID 0000.0001) %MON dynstat_wvel_mean            =   4.2054848106483E-23
(PID.TID 0000.0001) %MON dynstat_wvel_sd              =   1.2658776508226E-05
(PID.TID 0000.0001) %MON dynstat_wvel_del2            =   1.2854469719365E-07
(PID.TID 0000.0001) %MON dynstat_theta_max            =   3.0321877924871E+01
(PID.TID 0000.0001) %MON dynstat_theta_min            =  -1.9886804509203E+00
(PID.TID 0000.0001) %MON dynstat_theta_mean           =   3.6224923668240E+00
(PID.TID 0000.0001) %MON dynstat_theta_sd             =   4.4207896697292E+00
(PID.TID 0000.0001) %MON dynstat_theta_del2           =   4.7460979728140E-03
(PID.TID 0000.0001) %MON dynstat_salt_max             =   3.7456922755419E+01
(PID.TID 0000.0001) %MON dynstat_salt_min             =   2.9842186592764E+01
(PID.TID 0000.0001) %MON dynstat_salt_mean            =   3.4717982814048E+01
(PID.TID 0000.0001) %MON dynstat_salt_sd              =   2.9635734181294E-01
(PID.TID 0000.0001) %MON dynstat_salt_del2            =   9.8573763392712E-04
(PID.TID 0000.0001) %MON dynstat_sst_max              =   3.0321877924871E+01
(PID.TID 0000.0001) %MON dynstat_sst_min              =  -1.9886804509203E+00
(PID.TID 0000.0001) %MON dynstat_sst_mean             =   1.8906976358912E+01
(PID.TID 0000.0001) %MON dynstat_sst_sd               =   9.0119558602129E+00
(PID.TID 0000.0001) %MON dynstat_sst_del2             =   2.7276554731870E-02
(PID.TID 0000.0001) %MON dynstat_sss_max              =   3.7436127429706E+01
(PID.TID 0000.0001) %MON dynstat_sss_min              =   2.9842186592764E+01
(PID.TID 0000.0001) %MON dynstat_sss_mean             =   3.4843929605850E+01
(PID.TID 0000.0001) %MON dynstat_sss_sd               =   9.7749337022258E-01
(PID.TID 0000.0001) %MON dynstat_sss_del2             =   7.8916583331476E-03
(PID.TID 0000.0001) %MON forcing_qnet_max             =   3.5565408833822E+02
(PID.TID 0000.0001) %MON forcing_qnet_min             =  -1.7253468983968E+02
(PID.TID 0000.0001) %MON forcing_qnet_mean            =  -1.3741911479317E+01
(PID.TID 0000.0001) %MON forcing_qnet_sd              =   7.8173808417116E+01
(PID.TID 0000.0001) %MON forcing_qnet_del2            =   9.4361086901404E-01
(PID.TID 0000.0001) %MON forcing_qsw_max              =   0.0000000000000E+00
(PID.TID 0000.0001) %MON forcing_qsw_min              =   0.0000000000000E+00
(PID.TID 0000.0001) %MON forcing_qsw_mean             =   0.0000000000000E+00
(PID.TID 0000.0001) %MON forcing_qsw_sd               =   0.0000000000000E+00
(PID.TID 0000.0001) %MON forcing_qsw_del2             =   0.0000000000000E+00
(PID.TID 0000.0001) %MON forcing_empmr_max            =   7.1917854664131E-05
(PID.TID 0000.0001) %MON forcing_empmr_min            =  -7.7443707032406E-05
(PID.TID 0000.0001) %MON forcing_empmr_mean           =   9.3031904903503E-07
(PID.TID 0000.0001) %MON forcing_empmr_sd             =   2.7892298564578E-05
(PID.TID 0000.0001) %MON forcing_empmr_del2           =   3.5549806318694E-07
(PID.TID 0000.0001) %MON forcing_fu_max               =   3.0595987737179E-01
(PID.TID 0000.0001) %MON forcing_fu_min               =  -2.2111698041360E-01
(PID.TID 0000.0001) %MON forcing_fu_mean              =   1.7724941206094E-02
(PID.TID 0000.0001) %MON forcing_fu_sd                =   9.3018818826085E-02
(PID.TID 0000.0001) %MON forcing_fu_del2              =   7.3973840042027E-04
(PID.TID 0000.0001) %MON forcing_fv_max               =   1.9589827271799E-01
(PID.TID 0000.0001) %MON forcing_fv_min               =  -1.9819321930408E-01
(PID.TID 0000.0001) %MON forcing_fv_mean              =  -7.2271532909298E-03
(PID.TID 0000.0001) %MON forcing_fv_sd                =   4.4730626914368E-02
(PID.TID 0000.0001) %MON forcing_fv_del2              =   5.3371170048375E-04
(PID.TID 0000.0001) %MON trAdv_CFL_u_max              =   4.9008006415919E-02
(PID.TID 0000.0001) %MON trAdv_CFL_v_max              =   2.7781402449770E-02
(PID.TID 0000.0001) %MON trAdv_CFL_w_max              =   3.2359774145239E-02
(PID.TID 0000.0001) %MON advcfl_uvel_max              =   4.7323306344656E-02
(PID.TID 0000.0001) %MON advcfl_vvel_max              =   2.4372681345410E-02
(PID.TID 0000.0001) %MON advcfl_wvel_max              =   4.0688017741253E-02
(PID.TID 0000.0001) %MON advcfl_W_hf_max              =   4.9406878685807E-02
(PID.TID 0000.0001) %MON pe_b_mean                    =   4.3343361959021E-04
(PID.TID 0000.0001) %MON ke_max                       =   1.5407703394187E-02
(PID.TID 0000.0001) %MON ke_mean                      =   1.3227114416578E-04
(PID.TID 0000.0001) %MON ke_vol                       =   1.3226782436723E+18
(PID.TID 0000.0001) %MON vort_r_min                   =  -4.7819556894938E-07
(PID.TID 0000.0001) %MON vort_r_max                   =   3.9310247182783E-07
(PID.TID 0000.0001) %MON vort_a_mean                  =  -2.5274807073410E-05
(PID.TID 0000.0001) %MON vort_a_sd                    =   7.3604622426969E-05
(PID.TID 0000.0001) %MON vort_p_mean                  =  -3.1845655391188E-05
(PID.TID 0000.0001) %MON vort_p_sd                    =   1.3162448587736E-04
(PID.TID 0000.0001) %MON surfExpan_theta_mean         =   3.1565837185101E-07
(PID.TID 0000.0001) %MON surfExpan_salt_mean          =  -1.9465695912489E-09
(PID.TID 0000.0001) // =======================================================
(PID.TID 0000.0001) // End MONITOR dynamic field statistics
(PID.TID 0000.0001) // =======================================================
 EXTERNAL_FIELDS_LOAD,        47 : iP,iLd,i0,i1=    2    3    2    3 ; Wght=  0.9333333333  0.0666666667
 EXTERNAL_FIELDS_LOAD: (fu0,1),fu,fv= -1.4435E-02 -2.7199E-02 -1.5286E-02 -1.6498E-02
 EXTERNAL_FIELDS_LOAD: SST,SSS,Q,E-P= -5.0866E-01  3.4432E+01  2.3881E+02  8.4241E-06
DEBUG_STATS_RL:          Uvel (THERMODYNAMICS)  min= -1.34074205138457E-01
DEBUG_STATS_RL:          Uvel (THERMODYNAMICS)  max=  1.73334623614420E-01
DEBUG_STATS_RL:          Uvel (THERMODYNAMICS) mean=  5.43228751397764E-03
DEBUG_STATS_RL:          Uvel (THERMODYNAMICS) S.D.=  2.45310096777186E-02
DEBUG_STATS_RL:          Vvel (THERMODYNAMICS)  min= -1.02273233818876E-01
DEBUG_STATS_RL:          Vvel (THERMODYNAMICS)  max=  1.25448756055421E-01
DEBUG_STATS_RL:          Vvel (THERMODYNAMICS) mean=  1.24319274031347E-03
DEBUG_STATS_RL:          Vvel (THERMODYNAMICS) S.D.=  1.39265901702040E-02
DEBUG_STATS_RL:          Wvel (THERMODYNAMICS)  min= -8.95582556289239E-05
DEBUG_STATS_RL:          Wvel (THERMODYNAMICS)  max=  1.33060334026799E-04
DEBUG_STATS_RL:          Wvel (THERMODYNAMICS) mean= -5.33965461516538E-08
DEBUG_STATS_RL:          Wvel (THERMODYNAMICS) S.D.=  1.11983639741421E-05
DEBUG_STATS_RL:         Theta (THERMODYNAMICS)  min= -1.98694763947884E+00
DEBUG_STATS_RL:         Theta (THERMODYNAMICS)  max=  3.03372971648649E+01
DEBUG_STATS_RL:         Theta (THERMODYNAMICS) mean=  3.21788446449067E+00
DEBUG_STATS_RL:         Theta (THERMODYNAMICS) S.D.=  5.87029687006047E+00
DEBUG_STATS_RL:          Salt (THERMODYNAMICS)  min= -1.90819582357449E-17
DEBUG_STATS_RL:          Salt (THERMODYNAMICS)  max=  3.74575919570241E+01
DEBUG_STATS_RL:          Salt (THERMODYNAMICS) mean=  1.88449176530048E+01
DEBUG_STATS_RL:          Salt (THERMODYNAMICS) S.D.=  1.73004356172277E+01
DEBUG_STATS_RL:         GtNm1 (THERMODYNAMICS)  min= -4.89816527068672E-06
DEBUG_STATS_RL:         GtNm1 (THERMODYNAMICS)  max=  2.84325271667963E-06
DEBUG_STATS_RL:         GtNm1 (THERMODYNAMICS) mean=  7.48923881065714E-09
DEBUG_STATS_RL:         GtNm1 (THERMODYNAMICS) S.D.=  1.92449721373961E-07
DEBUG_STATS_RL:         GsNm1 (THERMODYNAMICS)  min= -4.95730585120278E-07
DEBUG_STATS_RL:         GsNm1 (THERMODYNAMICS)  max=  3.28330252434321E-07
DEBUG_STATS_RL:         GsNm1 (THERMODYNAMICS) mean=  1.99852156389718E-10
DEBUG_STATS_RL:         GsNm1 (THERMODYNAMICS) S.D.=  1.83921704413560E-08
DEBUG_STATS_RL:                EtaN (DYNAMICS)  min= -1.75413739921107E+00
DEBUG_STATS_RL:                EtaN (DYNAMICS)  max=  8.24665355060905E-01
DEBUG_STATS_RL:                EtaN (DYNAMICS) mean= -1.74495161145743E-01
DEBUG_STATS_RL:                EtaN (DYNAMICS) S.D.=  6.74195841218594E-01
DEBUG_STATS_RL:                Uvel (DYNAMICS)  min= -1.34074205138457E-01
DEBUG_STATS_RL:                Uvel (DYNAMICS)  max=  1.73334623614420E-01
DEBUG_STATS_RL:                Uvel (DYNAMICS) mean=  5.43228751397764E-03
DEBUG_STATS_RL:                Uvel (DYNAMICS) S.D.=  2.45310096777186E-02
DEBUG_STATS_RL:                Vvel (DYNAMICS)  min= -1.02273233818876E-01
DEBUG_STATS_RL:                Vvel (DYNAMICS)  max=  1.25448756055421E-01
DEBUG_STATS_RL:                Vvel (DYNAMICS) mean=  1.24319274031347E-03
DEBUG_STATS_RL:                Vvel (DYNAMICS) S.D.=  1.39265901702040E-02
DEBUG_STATS_RL:                Wvel (DYNAMICS)  min= -8.95582556289239E-05
DEBUG_STATS_RL:                Wvel (DYNAMICS)  max=  1.33060334026799E-04
DEBUG_STATS_RL:                Wvel (DYNAMICS) mean= -5.33965461516538E-08
DEBUG_STATS_RL:                Wvel (DYNAMICS) S.D.=  1.11983639741421E-05
DEBUG_STATS_RL:               Theta (DYNAMICS)  min= -1.98694763947884E+00
DEBUG_STATS_RL:               Theta (DYNAMICS)  max=  3.03372971648649E+01
DEBUG_STATS_RL:               Theta (DYNAMICS) mean=  3.21788446449067E+00
DEBUG_STATS_RL:               Theta (DYNAMICS) S.D.=  5.87029687006047E+00
DEBUG_STATS_RL:                Salt (DYNAMICS)  min= -1.90819582357449E-17
DEBUG_STATS_RL:                Salt (DYNAMICS)  max=  3.74575919570241E+01
DEBUG_STATS_RL:                Salt (DYNAMICS) mean=  1.88449176530048E+01
DEBUG_STATS_RL:                Salt (DYNAMICS) S.D.=  1.73004356172277E+01
DEBUG_STATS_RL:                  Gu (DYNAMICS)  min= -1.32296258564943E-01
DEBUG_STATS_RL:                  Gu (DYNAMICS)  max=  1.82413225540147E-01
DEBUG_STATS_RL:                  Gu (DYNAMICS) mean=  5.39641228409156E-03
DEBUG_STATS_RL:                  Gu (DYNAMICS) S.D.=  2.47579071043313E-02
DEBUG_STATS_RL:                  Gv (DYNAMICS)  min= -9.97693217092422E-02
DEBUG_STATS_RL:                  Gv (DYNAMICS)  max=  1.29754142359281E-01
DEBUG_STATS_RL:                  Gv (DYNAMICS) mean=  3.84599956296090E-03
DEBUG_STATS_RL:                  Gv (DYNAMICS) S.D.=  1.51574155732125E-02
DEBUG_STATS_RL:               GuNm1 (DYNAMICS)  min= -9.15750407225854E-06
DEBUG_STATS_RL:               GuNm1 (DYNAMICS)  max=  8.71579226101176E-06
DEBUG_STATS_RL:               GuNm1 (DYNAMICS) mean= -1.12997878501093E-08
DEBUG_STATS_RL:               GuNm1 (DYNAMICS) S.D.=  1.17402461100350E-06
DEBUG_STATS_RL:               GvNm1 (DYNAMICS)  min= -9.58197521353354E-06
DEBUG_STATS_RL:               GvNm1 (DYNAMICS)  max=  1.64090866903181E-05
DEBUG_STATS_RL:               GvNm1 (DYNAMICS) mean=  7.47325734027640E-07
DEBUG_STATS_RL:               GvNm1 (DYNAMICS) S.D.=  2.59307794416645E-06
DEBUG_STATS_RL:               GtNm1 (DYNAMICS)  min= -4.89816527068672E-06
DEBUG_STATS_RL:               GtNm1 (DYNAMICS)  max=  2.84325271667963E-06
DEBUG_STATS_RL:               GtNm1 (DYNAMICS) mean=  7.48923881065714E-09
DEBUG_STATS_RL:               GtNm1 (DYNAMICS) S.D.=  1.92449721373961E-07
DEBUG_STATS_RL:               GsNm1 (DYNAMICS)  min= -4.95730585120278E-07
DEBUG_STATS_RL:               GsNm1 (DYNAMICS)  max=  3.28330252434321E-07
DEBUG_STATS_RL:               GsNm1 (DYNAMICS) mean=  1.99852156389718E-10
DEBUG_STATS_RL:               GsNm1 (DYNAMICS) S.D.=  1.83921704413560E-08
DEBUG_STATS_RL:    cg2d_b (SOLVE_FOR_PRESSURE)  min= -1.99327428186472E+04
DEBUG_STATS_RL:    cg2d_b (SOLVE_FOR_PRESSURE)  max=  2.46682989621167E+04
DEBUG_STATS_RL:    cg2d_b (SOLVE_FOR_PRESSURE) mean=  3.47614839456242E+00
DEBUG_STATS_RL:    cg2d_b (SOLVE_FOR_PRESSURE) S.D.=  3.65627221779627E+03
 cg2d: Sum(rhs),rhsMax =   3.26219637023558E-01  1.62027992336973E+00
(PID.TID 0000.0001)  cg2d: iter=     1 ; resid.=  8.40521856871381E-02
(PID.TID 0000.0001)  cg2d: iter=     2 ; resid.=  4.39826712418126E-02
(PID.TID 0000.0001)  cg2d: iter=     3 ; resid.=  4.33405704987868E-02
(PID.TID 0000.0001)  cg2d: iter=     4 ; resid.=  4.70667524941462E-02
(PID.TID 0000.0001)  cg2d: iter=     5 ; resid.=  4.30313750172144E-02
(PID.TID 0000.0001)  cg2d: iter=     6 ; resid.=  3.71550546837009E-02
(PID.TID 0000.0001)  cg2d: iter=     7 ; resid.=  3.05862644051061E-02
(PID.TID 0000.0001)  cg2d: iter=     8 ; resid.=  2.52002611609264E-02
(PID.TID 0000.0001)  cg2d: iter=     9 ; resid.=  2.06568019654592E-02
(PID.TID 0000.0001)  cg2d: iter=    10 ; resid.=  1.80295317523800E-02
(PID.TID 0000.0001)  cg2d: iter=    11 ; resid.=  1.51282994790909E-02
(PID.TID 0000.0001)  cg2d: iter=    12 ; resid.=  1.20126058390288E-02
(PID.TID 0000.0001)  cg2d: iter=    13 ; resid.=  9.36025720735485E-03
(PID.TID 0000.0001)  cg2d: iter=    14 ; resid.=  7.58762080553000E-03
(PID.TID 0000.0001)  cg2d: iter=    15 ; resid.=  6.78945475299534E-03
(PID.TID 0000.0001)  cg2d: iter=    16 ; resid.=  5.72341679017449E-03
(PID.TID 0000.0001)  cg2d: iter=    17 ; resid.=  5.04139323978930E-03
(PID.TID 0000.0001)  cg2d: iter=    18 ; resid.=  4.21347121090558E-03
(PID.TID 0000.0001)  cg2d: iter=    19 ; resid.=  3.73505839513030E-03
(PID.TID 0000.0001)  cg2d: iter=    20 ; resid.=  3.03695491647351E-03
(PID.TID 0000.0001)  cg2d: iter=    21 ; resid.=  2.33116017000959E-03
(PID.TID 0000.0001)  cg2d: iter=    22 ; resid.=  2.07581622153514E-03
(PID.TID 0000.0001)  cg2d: iter=    23 ; resid.=  1.84945289573480E-03
(PID.TID 0000.0001)  cg2d: iter=    24 ; resid.=  1.40323227389147E-03
(PID.TID 0000.0001)  cg2d: iter=    25 ; resid.=  1.05702087088771E-03
(PID.TID 0000.0001)  cg2d: iter=    26 ; resid.=  8.76804596149617E-04
(PID.TID 0000.0001)  cg2d: iter=    27 ; resid.=  8.00383660643710E-04
(PID.TID 0000.0001)  cg2d: iter=    28 ; resid.=  7.00497757071432E-04
(PID.TID 0000.0001)  cg2d: iter=    29 ; resid.=  5.90740724116245E-04
(PID.TID 0000.0001)  cg2d: iter=    30 ; resid.=  4.50499002523572E-04
(PID.TID 0000.0001)  cg2d: iter=    31 ; resid.=  3.69917159938114E-04
(PID.TID 0000.0001)  cg2d: iter=    32 ; resid.=  3.12485107526435E-04
(PID.TID 0000.0001)  cg2d: iter=    33 ; resid.=  2.50460062576179E-04
(PID.TID 0000.0001)  cg2d: iter=    34 ; resid.=  1.98489253152342E-04
(PID.TID 0000.0001)  cg2d: iter=    35 ; resid.=  1.58375707685207E-04
(PID.TID 0000.0001)  cg2d: iter=    36 ; resid.=  1.39944556456548E-04
(PID.TID 0000.0001)  cg2d: iter=    37 ; resid.=  1.22389782553165E-04
(PID.TID 0000.0001)  cg2d: iter=    38 ; resid.=  1.06892637539320E-04
(PID.TID 0000.0001)  cg2d: iter=    39 ; resid.=  9.34636997850430E-05
(PID.TID 0000.0001)  cg2d: iter=    40 ; resid.=  8.40138485496893E-05
(PID.TID 0000.0001)  cg2d: iter=    41 ; resid.=  7.17677010976046E-05
(PID.TID 0000.0001)  cg2d: iter=    42 ; resid.=  6.29023468925686E-05
(PID.TID 0000.0001)  cg2d: iter=    43 ; resid.=  5.52923892434750E-05
(PID.TID 0000.0001)  cg2d: iter=    44 ; resid.=  4.47854274861749E-05
(PID.TID 0000.0001)  cg2d: iter=    45 ; resid.=  3.52570963389536E-05
(PID.TID 0000.0001)  cg2d: iter=    46 ; resid.=  2.75483373118846E-05
(PID.TID 0000.0001)  cg2d: iter=    47 ; resid.=  2.16355541973401E-05
(PID.TID 0000.0001)  cg2d: iter=    48 ; resid.=  1.88321747938798E-05
(PID.TID 0000.0001)  cg2d: iter=    49 ; resid.=  1.60067984598392E-05
(PID.TID 0000.0001)  cg2d: iter=    50 ; resid.=  1.40039126606122E-05
(PID.TID 0000.0001)  cg2d: iter=    51 ; resid.=  1.21687199485421E-05
(PID.TID 0000.0001)  cg2d: iter=    52 ; resid.=  1.02593721458642E-05
(PID.TID 0000.0001)  cg2d: iter=    53 ; resid.=  8.39424232060729E-06
(PID.TID 0000.0001)  cg2d: iter=    54 ; resid.=  6.49826232598549E-06
(PID.TID 0000.0001)  cg2d: iter=    55 ; resid.=  4.80469468283703E-06
(PID.TID 0000.0001)  cg2d: iter=    56 ; resid.=  3.77467604515862E-06
(PID.TID 0000.0001)  cg2d: iter=    57 ; resid.=  3.07937399714105E-06
(PID.TID 0000.0001)  cg2d: iter=    58 ; resid.=  2.51543340966890E-06
(PID.TID 0000.0001)  cg2d: iter=    59 ; resid.=  2.07809982291067E-06
(PID.TID 0000.0001)  cg2d: iter=    60 ; resid.=  1.60958966399566E-06
(PID.TID 0000.0001)  cg2d: iter=    61 ; resid.=  1.36924019216508E-06
(PID.TID 0000.0001)  cg2d: iter=    62 ; resid.=  1.17419760397729E-06
(PID.TID 0000.0001)  cg2d: iter=    63 ; resid.=  8.70935097237959E-07
(PID.TID 0000.0001)  cg2d: iter=    64 ; resid.=  6.67927306748779E-07
(PID.TID 0000.0001)  cg2d: iter=    65 ; resid.=  5.37470371775269E-07
(PID.TID 0000.0001)  cg2d: iter=    66 ; resid.=  4.30640960108675E-07
(PID.TID 0000.0001)  cg2d: iter=    67 ; resid.=  3.12288899362952E-07
(PID.TID 0000.0001)  cg2d: iter=    68 ; resid.=  2.30281654026244E-07
(PID.TID 0000.0001)  cg2d: iter=    69 ; resid.=  1.78984597703517E-07
(PID.TID 0000.0001)  cg2d: iter=    70 ; resid.=  1.45567632952967E-07
(PID.TID 0000.0001)  cg2d: iter=    71 ; resid.=  1.12992018584575E-07
(PID.TID 0000.0001)  cg2d: iter=    72 ; resid.=  8.85862190775253E-08
(PID.TID 0000.0001)  cg2d: iter=    73 ; resid.=  7.10033083367010E-08
(PID.TID 0000.0001)  cg2d: iter=    74 ; resid.=  5.69644299324605E-08
(PID.TID 0000.0001)  cg2d: iter=    75 ; resid.=  4.92754348806948E-08
(PID.TID 0000.0001)  cg2d: iter=    76 ; resid.=  4.42135146610872E-08
(PID.TID 0000.0001)  cg2d: iter=    77 ; resid.=  3.74382982392845E-08
(PID.TID 0000.0001)  cg2d: iter=    78 ; resid.=  3.00314376535717E-08
(PID.TID 0000.0001)  cg2d: iter=    79 ; resid.=  2.47883650630182E-08
(PID.TID 0000.0001)  cg2d: iter=    80 ; resid.=  2.21711666702712E-08
(PID.TID 0000.0001)  cg2d: iter=    81 ; resid.=  1.93585847285421E-08
(PID.TID 0000.0001)  cg2d: iter=    82 ; resid.=  1.51742994600638E-08
(PID.TID 0000.0001)  cg2d: iter=    83 ; resid.=  1.18327771700600E-08
(PID.TID 0000.0001)  cg2d: iter=    84 ; resid.=  9.76899735180386E-09
(PID.TID 0000.0001)  cg2d: iter=    85 ; resid.=  8.57018155295064E-09
(PID.TID 0000.0001)  cg2d: iter=    86 ; resid.=  6.70951162051770E-09
(PID.TID 0000.0001)  cg2d: iter=    87 ; resid.=  5.33144006586860E-09
(PID.TID 0000.0001)  cg2d: iter=    88 ; resid.=  4.38940043619181E-09
(PID.TID 0000.0001)  cg2d: iter=    89 ; resid.=  3.92468777383934E-09
(PID.TID 0000.0001)  cg2d: iter=    90 ; resid.=  3.33037533590282E-09
(PID.TID 0000.0001)  cg2d: iter=    91 ; resid.=  2.68596973258698E-09
(PID.TID 0000.0001)  cg2d: iter=    92 ; resid.=  1.98790680317946E-09
(PID.TID 0000.0001)  cg2d: iter=    93 ; resid.=  1.36348201229756E-09
(PID.TID 0000.0001)  cg2d: iter=    94 ; resid.=  9.60243750026201E-10
(PID.TID 0000.0001)  cg2d: iter=    95 ; resid.=  7.76976348815458E-10
(PID.TID 0000.0001)  cg2d: iter=    96 ; resid.=  6.26096408717003E-10
(PID.TID 0000.0001)  cg2d: iter=    97 ; resid.=  5.08054470362194E-10
(PID.TID 0000.0001)  cg2d: iter=    98 ; resid.=  4.41565718694436E-10
(PID.TID 0000.0001)  cg2d: iter=    99 ; resid.=  3.93014238116879E-10
(PID.TID 0000.0001)  cg2d: iter=   100 ; resid.=  3.74563718181051E-10
(PID.TID 0000.0001)  cg2d: iter=   101 ; resid.=  3.39732273639472E-10
(PID.TID 0000.0001)  cg2d: iter=   102 ; resid.=  2.63480163818347E-10
(PID.TID 0000.0001)  cg2d: iter=   103 ; resid.=  1.82554957605580E-10
(PID.TID 0000.0001)  cg2d: iter=   104 ; resid.=  1.39409394608910E-10
(PID.TID 0000.0001)  cg2d: iter=   105 ; resid.=  1.20398235743578E-10
(PID.TID 0000.0001)  cg2d: iter=   106 ; resid.=  9.48295516321604E-11
(PID.TID 0000.0001)  cg2d: iter=   107 ; resid.=  6.90267981898194E-11
(PID.TID 0000.0001)  cg2d: iter=   108 ; resid.=  5.39396400814205E-11
(PID.TID 0000.0001)  cg2d: iter=   109 ; resid.=  4.32464129071421E-11
(PID.TID 0000.0001)  cg2d: iter=   110 ; resid.=  3.61583337105722E-11
(PID.TID 0000.0001)  cg2d: iter=   111 ; resid.=  2.72870358688893E-11
(PID.TID 0000.0001)  cg2d: iter=   112 ; resid.=  2.03473210282648E-11
(PID.TID 0000.0001)  cg2d: iter=   113 ; resid.=  1.52469962749712E-11
(PID.TID 0000.0001)  cg2d: iter=   114 ; resid.=  1.12638278513514E-11
(PID.TID 0000.0001)  cg2d: iter=   115 ; resid.=  8.53197589287575E-12
(PID.TID 0000.0001)  cg2d: iter=   116 ; resid.=  6.27548294184618E-12
(PID.TID 0000.0001)  cg2d: iter=   117 ; resid.=  4.90272586559475E-12
(PID.TID 0000.0001)  cg2d: iter=   118 ; resid.=  3.89642827936633E-12
(PID.TID 0000.0001)  cg2d: iter=   119 ; resid.=  3.08205524768473E-12
(PID.TID 0000.0001)  cg2d: iter=   120 ; resid.=  2.31640181625503E-12
(PID.TID 0000.0001)  cg2d: iter=   121 ; resid.=  1.66123832017313E-12
(PID.TID 0000.0001)  cg2d: iter=   122 ; resid.=  1.18968643969335E-12
(PID.TID 0000.0001)  cg2d: iter=   123 ; resid.=  9.05543586345897E-13
(PID.TID 0000.0001)  cg2d: iter=   124 ; resid.=  7.22238021016069E-13
(PID.TID 0000.0001)  cg2d: iter=   125 ; resid.=  5.64124591671318E-13
(PID.TID 0000.0001)  cg2d: iter=   126 ; resid.=  4.23668195450261E-13
(PID.TID 0000.0001)  cg2d: iter=   127 ; resid.=  2.95080959188822E-13
(PID.TID 0000.0001)  cg2d: iter=   128 ; resid.=  1.96146932909180E-13
(PID.TID 0000.0001)  cg2d: iter=   129 ; resid.=  1.40450688507461E-13
(PID.TID 0000.0001)  cg2d: iter=   130 ; resid.=  1.08570759321022E-13
(PID.TID 0000.0001)  cg2d: iter=   131 ; resid.=  8.46742713398866E-14
DEBUG_STATS_RL:    cg2d_x (SOLVE_FOR_PRESSURE)  min= -1.74917369327320E+01
DEBUG_STATS_RL:    cg2d_x (SOLVE_FOR_PRESSURE)  max=  8.12385062433128E+00
DEBUG_STATS_RL:    cg2d_x (SOLVE_FOR_PRESSURE) mean= -1.72201973790811E+00
DEBUG_STATS_RL:    cg2d_x (SOLVE_FOR_PRESSURE) S.D.=  6.66619115521459E+00
(PID.TID 0000.0001)      cg2d_init_res =   3.02157528894491E-01
(PID.TID 0000.0001)      cg2d_iters(min,last) =      -1     131
(PID.TID 0000.0001)      cg2d_last_res =   8.46742713398866E-14
(PID.TID 0000.0001) // =======================================================
(PID.TID 0000.0001) // Begin MONITOR dynamic field statistics
(PID.TID 0000.0001) // =======================================================
(PID.TID 0000.0001) %MON time_tsnumber                =                    48
(PID.TID 0000.0001) %MON time_secondsf                =   4.1472000000000E+06
(PID.TID 0000.0001) %MON dynstat_eta_max              =   8.2811932969745E-01
(PID.TID 0000.0001) %MON dynstat_eta_min              =  -1.7830516751002E+00
(PID.TID 0000.0001) %MON dynstat_eta_mean             =  -3.6269298215544E-03
(PID.TID 0000.0001) %MON dynstat_eta_sd               =   5.8693062591696E-01
(PID.TID 0000.0001) %MON dynstat_eta_del2             =   2.2198062778053E-03
(PID.TID 0000.0001) %MON dynstat_uvel_max             =   1.7847142884584E-01
(PID.TID 0000.0001) %MON dynstat_uvel_min             =  -1.3239186655761E-01
(PID.TID 0000.0001) %MON dynstat_uvel_mean            =   2.0631852432432E-03
(PID.TID 0000.0001) %MON dynstat_uvel_sd              =   1.4636426419500E-02
(PID.TID 0000.0001) %MON dynstat_uvel_del2            =   8.5681890021166E-05
(PID.TID 0000.0001) %MON dynstat_vvel_max             =   1.2897354525819E-01
(PID.TID 0000.0001) %MON dynstat_vvel_min             =  -1.0090080638553E-01
(PID.TID 0000.0001) %MON dynstat_vvel_mean            =   2.4250980066685E-05
(PID.TID 0000.0001) %MON dynstat_vvel_sd              =   8.5128815462514E-03
(PID.TID 0000.0001) %MON dynstat_vvel_del2            =   7.4512409422142E-05
(PID.TID 0000.0001) %MON dynstat_wvel_max             =   1.3989451959498E-04
(PID.TID 0000.0001) %MON dynstat_wvel_min             =  -8.4255509378057E-05
(PID.TID 0000.0001) %MON dynstat_wvel_mean            =   3.1678184194090E-22
(PID.TID 0000.0001) %MON dynstat_wvel_sd              =   1.2452894977462E-05
(PID.TID 0000.0001) %MON dynstat_wvel_del2            =   1.2688623209258E-07
(PID.TID 0000.0001) %MON dynstat_theta_max            =   3.0337297164865E+01
(PID.TID 0000.0001) %MON dynstat_theta_min            =  -1.9869476394788E+00
(PID.TID 0000.0001) %MON dynstat_theta_mean           =   3.6225608302319E+00
(PID.TID 0000.0001) %MON dynstat_theta_sd             =   4.4210055991362E+00
(PID.TID 0000.0001) %MON dynstat_theta_del2           =   4.7558667963907E-03
(PID.TID 0000.0001) %MON dynstat_salt_max             =   3.7457591957024E+01
(PID.TID 0000.0001) %MON dynstat_salt_min             =   2.9844824158884E+01
(PID.TID 0000.0001) %MON dynstat_salt_mean            =   3.4717983931491E+01
(PID.TID 0000.0001) %MON dynstat_salt_sd              =   2.9636502451714E-01
(PID.TID 0000.0001) %MON dynstat_salt_del2            =   9.8631524603680E-04
(PID.TID 0000.0001) %MON dynstat_sst_max              =   3.0337297164865E+01
(PID.TID 0000.0001) %MON dynstat_sst_min              =  -1.9869476394788E+00
(PID.TID 0000.0001) %MON dynstat_sst_mean             =   1.8915243348342E+01
(PID.TID 0000.0001) %MON dynstat_sst_sd               =   9.0141215970984E+00
(PID.TID 0000.0001) %MON dynstat_sst_del2             =   2.7345343814345E-02
(PID.TID 0000.0001) %MON dynstat_sss_max              =   3.7437218874412E+01
(PID.TID 0000.0001) %MON dynstat_sss_min              =   2.9844824158884E+01
(PID.TID 0000.0001) %MON dynstat_sss_mean             =   3.4843814564299E+01
(PID.TID 0000.0001) %MON dynstat_sss_sd               =   9.7763992603541E-01
(PID.TID 0000.0001) %MON dynstat_sss_del2             =   7.9009828137643E-03
(PID.TID 0000.0001) %MON forcing_qnet_max             =   3.5285593668620E+02
(PID.TID 0000.0001) %MON forcing_qnet_min             =  -1.7223541056315E+02
(PID.TID 0000.0001) %MON forcing_qnet_mean            =  -1.3518571979690E+01
(PID.TID 0000.0001) %MON forcing_qnet_sd              =   7.6758869987334E+01
(PID.TID 0000.0001) %MON forcing_qnet_del2            =   9.3812538915250E-01
(PID.TID 0000.0001) %MON forcing_qsw_max              =   0.0000000000000E+00
(PID.TID 0000.0001) %MON forcing_qsw_min              =   0.0000000000000E+00
(PID.TID 0000.0001) %MON forcing_qsw_mean             =   0.0000000000000E+00
(PID.TID 0000.0001) %MON forcing_qsw_sd               =   0.0000000000000E+00
(PID.TID 0000.0001) %MON forcing_qsw_del2             =   0.0000000000000E+00
(PID.TID 0000.0001) %MON forcing_empmr_max            =   7.1084162319342E-05
(PID.TID 0000.0001) %MON forcing_empmr_min            =  -7.6342130010213E-05
(PID.TID 0000.0001) %MON forcing_empmr_mean           =   9.1722911816067E-07
(PID.TID 0000.0001) %MON forcing_empmr_sd             =   2.7805085834175E-05
(PID.TID 0000.0001) %MON forcing_empmr_del2           =   3.5498793147611E-07
(PID.TID 0000.0001) %MON forcing_fu_max               =   3.0728422999382E-01
(PID.TID 0000.0001) %MON forcing_fu_min               =  -2.2650160988172E-01
(PID.TID 0000.0001) %MON forcing_fu_mean              =   1.7819140795553E-02
(PID.TID 0000.0001) %MON forcing_fu_sd                =   9.3044945573839E-02
(PID.TID 0000.0001) %MON forcing_fu_del2              =   7.3292093358534E-04
(PID.TID 0000.0001) %MON forcing_fv_max               =   1.9021158044537E-01
(PID.TID 0000.0001) %MON forcing_fv_min               =  -1.9670718312263E-01
(PID.TID 0000.0001) %MON forcing_fv_mean              =  -7.2375816408993E-03
(PID.TID 0000.0001) %MON forcing_fv_sd                =   4.4424183443592E-02
(PID.TID 0000.0001) %MON forcing_fv_del2              =   5.2624207752019E-04
(PID.TID 0000.0001) %MON trAdv_CFL_u_max              =   4.7332918046637E-02
(PID.TID 0000.0001) %MON trAdv_CFL_v_max              =   2.7987687502034E-02
(PID.TID 0000.0001) %MON trAdv_CFL_w_max              =   3.4584815080065E-02
(PID.TID 0000.0001) %MON advcfl_uvel_max              =   4.7099400451114E-02
(PID.TID 0000.0001) %MON advcfl_vvel_max              =   2.5057491356685E-02
(PID.TID 0000.0001) %MON advcfl_wvel_max              =   4.2777582927063E-02
(PID.TID 0000.0001) %MON advcfl_W_hf_max              =   5.1944207840005E-02
(PID.TID 0000.0001) %MON pe_b_mean                    =   4.4083018754095E-04
(PID.TID 0000.0001) %MON ke_max                       =   1.6263074962440E-02
(PID.TID 0000.0001) %MON ke_mean                      =   1.3179439116916E-04
(PID.TID 0000.0001) %MON ke_vol                       =   1.3226782436723E+18
(PID.TID 0000.0001) %MON vort_r_min                   =  -4.7743412669697E-07
(PID.TID 0000.0001) %MON vort_r_max                   =   3.9880933151173E-07
(PID.TID 0000.0001) %MON vort_a_mean                  =  -2.5274807061633E-05
(PID.TID 0000.0001) %MON vort_a_sd                    =   7.3604633420439E-05
(PID.TID 0000.0001) %MON vort_p_mean                  =  -3.1845655376349E-05
(PID.TID 0000.0001) %MON vort_p_sd                    =   1.3162453468748E-04
(PID.TID 0000.0001) %MON surfExpan_theta_mean         =   3.3198492954078E-07
(PID.TID 0000.0001) %MON surfExpan_salt_mean          =  -9.8447306173898E-09
(PID.TID 0000.0001) // =======================================================
(PID.TID 0000.0001) // End MONITOR dynamic field statistics
(PID.TID 0000.0001) // =======================================================
 EXTERNAL_FIELDS_LOAD,        48 : iP,iLd,i0,i1=    2    3    2    3 ; Wght=  0.9000000000  0.1000000000
 EXTERNAL_FIELDS_LOAD: (fu0,1),fu,fv= -1.4435E-02 -2.7199E-02 -1.5711E-02 -1.5930E-02
 EXTERNAL_FIELDS_LOAD: SST,SSS,Q,E-P= -4.9706E-01  3.4437E+01  2.3797E+02  8.4476E-06
DEBUG_STATS_RL:          Uvel (THERMODYNAMICS)  min= -1.32391866557608E-01
DEBUG_STATS_RL:          Uvel (THERMODYNAMICS)  max=  1.78471428845838E-01
DEBUG_STATS_RL:          Uvel (THERMODYNAMICS) mean=  5.53204615577641E-03
DEBUG_STATS_RL:          Uvel (THERMODYNAMICS) S.D.=  2.43976526069091E-02
DEBUG_STATS_RL:          Vvel (THERMODYNAMICS)  min= -1.00900806385532E-01
DEBUG_STATS_RL:          Vvel (THERMODYNAMICS)  max=  1.28973545258186E-01
DEBUG_STATS_RL:          Vvel (THERMODYNAMICS) mean=  1.37474871595755E-03
DEBUG_STATS_RL:          Vvel (THERMODYNAMICS) S.D.=  1.39484842987091E-02
DEBUG_STATS_RL:          Wvel (THERMODYNAMICS)  min= -8.42555093780574E-05
DEBUG_STATS_RL:          Wvel (THERMODYNAMICS)  max=  1.39894519594983E-04
DEBUG_STATS_RL:          Wvel (THERMODYNAMICS) mean= -1.56003067353988E-08
DEBUG_STATS_RL:          Wvel (THERMODYNAMICS) S.D.=  1.10527511021185E-05
DEBUG_STATS_RL:         Theta (THERMODYNAMICS)  min= -1.98524365183400E+00
DEBUG_STATS_RL:         Theta (THERMODYNAMICS)  max=  3.03514475907224E+01
DEBUG_STATS_RL:         Theta (THERMODYNAMICS) mean=  3.21815186116507E+00
DEBUG_STATS_RL:         Theta (THERMODYNAMICS) S.D.=  5.87100737149880E+00
DEBUG_STATS_RL:          Salt (THERMODYNAMICS)  min= -1.90819582357449E-17
DEBUG_STATS_RL:          Salt (THERMODYNAMICS)  max=  3.74583509807502E+01
DEBUG_STATS_RL:          Salt (THERMODYNAMICS) mean=  1.88449272246211E+01
DEBUG_STATS_RL:          Salt (THERMODYNAMICS) S.D.=  1.73004447568867E+01
DEBUG_STATS_RL:         GtNm1 (THERMODYNAMICS)  min= -4.95367968793587E-06
DEBUG_STATS_RL:         GtNm1 (THERMODYNAMICS)  max=  2.86483185189925E-06
DEBUG_STATS_RL:         GtNm1 (THERMODYNAMICS) mean=  6.45414410066934E-09
DEBUG_STATS_RL:         GtNm1 (THERMODYNAMICS) S.D.=  1.91863259008662E-07
DEBUG_STATS_RL:         GsNm1 (THERMODYNAMICS)  min= -5.08151356755575E-07
DEBUG_STATS_RL:         GsNm1 (THERMODYNAMICS)  max=  3.31458207321039E-07
DEBUG_STATS_RL:         GsNm1 (THERMODYNAMICS) mean=  1.64967751516611E-10
DEBUG_STATS_RL:         GsNm1 (THERMODYNAMICS) S.D.=  1.85624224556697E-08
DEBUG_STATS_RL:                EtaN (DYNAMICS)  min= -1.78305167510015E+00
DEBUG_STATS_RL:                EtaN (DYNAMICS)  max=  8.28119329697446E-01
DEBUG_STATS_RL:                EtaN (DYNAMICS) mean= -1.75537180214895E-01
DEBUG_STATS_RL:                EtaN (DYNAMICS) S.D.=  6.79530189114637E-01
DEBUG_STATS_RL:                Uvel (DYNAMICS)  min= -1.32391866557608E-01
DEBUG_STATS_RL:                Uvel (DYNAMICS)  max=  1.78471428845838E-01
DEBUG_STATS_RL:                Uvel (DYNAMICS) mean=  5.53204615577641E-03
DEBUG_STATS_RL:                Uvel (DYNAMICS) S.D.=  2.43976526069091E-02
DEBUG_STATS_RL:                Vvel (DYNAMICS)  min= -1.00900806385532E-01
DEBUG_STATS_RL:                Vvel (DYNAMICS)  max=  1.28973545258186E-01
DEBUG_STATS_RL:                Vvel (DYNAMICS) mean=  1.37474871595755E-03
DEBUG_STATS_RL:                Vvel (DYNAMICS) S.D.=  1.39484842987091E-02
DEBUG_STATS_RL:                Wvel (DYNAMICS)  min= -8.42555093780574E-05
DEBUG_STATS_RL:                Wvel (DYNAMICS)  max=  1.39894519594983E-04
DEBUG_STATS_RL:                Wvel (DYNAMICS) mean= -1.56003067353988E-08
DEBUG_STATS_RL:                Wvel (DYNAMICS) S.D.=  1.10527511021185E-05
DEBUG_STATS_RL:               Theta (DYNAMICS)  min= -1.98524365183400E+00
DEBUG_STATS_RL:               Theta (DYNAMICS)  max=  3.03514475907224E+01
DEBUG_STATS_RL:               Theta (DYNAMICS) mean=  3.21815186116507E+00
DEBUG_STATS_RL:               Theta (DYNAMICS) S.D.=  5.87100737149880E+00
DEBUG_STATS_RL:                Salt (DYNAMICS)  min= -1.90819582357449E-17
DEBUG_STATS_RL:                Salt (DYNAMICS)  max=  3.74583509807502E+01
DEBUG_STATS_RL:                Salt (DYNAMICS) mean=  1.88449272246211E+01
DEBUG_STATS_RL:                Salt (DYNAMICS) S.D.=  1.73004447568867E+01
DEBUG_STATS_RL:                  Gu (DYNAMICS)  min= -1.30879710636593E-01
DEBUG_STATS_RL:                  Gu (DYNAMICS)  max=  1.87919299626247E-01
DEBUG_STATS_RL:                  Gu (DYNAMICS) mean=  5.46599382182278E-03
DEBUG_STATS_RL:                  Gu (DYNAMICS) S.D.=  2.45375024138364E-02
DEBUG_STATS_RL:                  Gv (DYNAMICS)  min= -9.87917016858645E-02
DEBUG_STATS_RL:                  Gv (DYNAMICS)  max=  1.33015496948567E-01
DEBUG_STATS_RL:                  Gv (DYNAMICS) mean=  3.96305794477745E-03
DEBUG_STATS_RL:                  Gv (DYNAMICS) S.D.=  1.52955654080627E-02
DEBUG_STATS_RL:               GuNm1 (DYNAMICS)  min= -9.26033785819169E-06
DEBUG_STATS_RL:               GuNm1 (DYNAMICS)  max=  8.77585530028782E-06
DEBUG_STATS_RL:               GuNm1 (DYNAMICS) mean= -1.00997078136757E-08
DEBUG_STATS_RL:               GuNm1 (DYNAMICS) S.D.=  1.17567214859808E-06
DEBUG_STATS_RL:               GvNm1 (DYNAMICS)  min= -9.56212971225242E-06
DEBUG_STATS_RL:               GvNm1 (DYNAMICS)  max=  1.64114889235793E-05
DEBUG_STATS_RL:               GvNm1 (DYNAMICS) mean=  7.46980935854054E-07
DEBUG_STATS_RL:               GvNm1 (DYNAMICS) S.D.=  2.59665033351165E-06
DEBUG_STATS_RL:               GtNm1 (DYNAMICS)  min= -4.95367968793587E-06
DEBUG_STATS_RL:               GtNm1 (DYNAMICS)  max=  2.86483185189925E-06
DEBUG_STATS_RL:               GtNm1 (DYNAMICS) mean=  6.45414410066934E-09
DEBUG_STATS_RL:               GtNm1 (DYNAMICS) S.D.=  1.91863259008662E-07
DEBUG_STATS_RL:               GsNm1 (DYNAMICS)  min= -5.08151356755575E-07
DEBUG_STATS_RL:               GsNm1 (DYNAMICS)  max=  3.31458207321039E-07
DEBUG_STATS_RL:               GsNm1 (DYNAMICS) mean=  1.64967751516611E-10
DEBUG_STATS_RL:               GsNm1 (DYNAMICS) S.D.=  1.85624224556697E-08
DEBUG_STATS_RL:    cg2d_b (SOLVE_FOR_PRESSURE)  min= -2.00385619834702E+04
DEBUG_STATS_RL:    cg2d_b (SOLVE_FOR_PRESSURE)  max=  2.50529829151127E+04
DEBUG_STATS_RL:    cg2d_b (SOLVE_FOR_PRESSURE) mean=  3.54848661840690E+00
DEBUG_STATS_RL:    cg2d_b (SOLVE_FOR_PRESSURE) S.D.=  3.67616859416645E+03
 cg2d: Sum(rhs),rhsMax =   3.27894947657385E-01  1.64554699536521E+00
(PID.TID 0000.0001)  cg2d: iter=     1 ; resid.=  8.35384815158399E-02
(PID.TID 0000.0001)  cg2d: iter=     2 ; resid.=  4.56849638070310E-02
(PID.TID 0000.0001)  cg2d: iter=     3 ; resid.=  4.75319020256596E-02
(PID.TID 0000.0001)  cg2d: iter=     4 ; resid.=  5.14682940308927E-02
(PID.TID 0000.0001)  cg2d: iter=     5 ; resid.=  4.65951443200022E-02
(PID.TID 0000.0001)  cg2d: iter=     6 ; resid.=  4.02652413138070E-02
(PID.TID 0000.0001)  cg2d: iter=     7 ; resid.=  3.30739551469320E-02
(PID.TID 0000.0001)  cg2d: iter=     8 ; resid.=  2.62758266149573E-02
(PID.TID 0000.0001)  cg2d: iter=     9 ; resid.=  2.09017899815875E-02
(PID.TID 0000.0001)  cg2d: iter=    10 ; resid.=  1.80457935616908E-02
(PID.TID 0000.0001)  cg2d: iter=    11 ; resid.=  1.50428591680040E-02
(PID.TID 0000.0001)  cg2d: iter=    12 ; resid.=  1.19238573370273E-02
(PID.TID 0000.0001)  cg2d: iter=    13 ; resid.=  9.25963879841082E-03
(PID.TID 0000.0001)  cg2d: iter=    14 ; resid.=  7.68805634335840E-03
(PID.TID 0000.0001)  cg2d: iter=    15 ; resid.=  7.00563482901172E-03
(PID.TID 0000.0001)  cg2d: iter=    16 ; resid.=  5.83715793972955E-03
(PID.TID 0000.0001)  cg2d: iter=    17 ; resid.=  5.09355911788208E-03
(PID.TID 0000.0001)  cg2d: iter=    18 ; resid.=  4.34748873370823E-03
(PID.TID 0000.0001)  cg2d: iter=    19 ; resid.=  3.87129440037052E-03
(PID.TID 0000.0001)  cg2d: iter=    20 ; resid.=  3.08807465004237E-03
(PID.TID 0000.0001)  cg2d: iter=    21 ; resid.=  2.35999155750273E-03
(PID.TID 0000.0001)  cg2d: iter=    22 ; resid.=  2.12302104395936E-03
(PID.TID 0000.0001)  cg2d: iter=    23 ; resid.=  1.87527827693863E-03
(PID.TID 0000.0001)  cg2d: iter=    24 ; resid.=  1.40926222307314E-03
(PID.TID 0000.0001)  cg2d: iter=    25 ; resid.=  1.07402674512312E-03
(PID.TID 0000.0001)  cg2d: iter=    26 ; resid.=  8.89422062147913E-04
(PID.TID 0000.0001)  cg2d: iter=    27 ; resid.=  7.90114023267264E-04
(PID.TID 0000.0001)  cg2d: iter=    28 ; resid.=  6.82392166191096E-04
(PID.TID 0000.0001)  cg2d: iter=    29 ; resid.=  5.72701665485888E-04
(PID.TID 0000.0001)  cg2d: iter=    30 ; resid.=  4.38145509164212E-04
(PID.TID 0000.0001)  cg2d: iter=    31 ; resid.=  3.58758412607694E-04
(PID.TID 0000.0001)  cg2d: iter=    32 ; resid.=  2.98259972398512E-04
(PID.TID 0000.0001)  cg2d: iter=    33 ; resid.=  2.35583028338758E-04
(PID.TID 0000.0001)  cg2d: iter=    34 ; resid.=  1.89360545580164E-04
(PID.TID 0000.0001)  cg2d: iter=    35 ; resid.=  1.50894174204049E-04
(PID.TID 0000.0001)  cg2d: iter=    36 ; resid.=  1.28989014746556E-04
(PID.TID 0000.0001)  cg2d: iter=    37 ; resid.=  1.10876151994144E-04
(PID.TID 0000.0001)  cg2d: iter=    38 ; resid.=  9.97061787457601E-05
(PID.TID 0000.0001)  cg2d: iter=    39 ; resid.=  8.72328887475543E-05
(PID.TID 0000.0001)  cg2d: iter=    40 ; resid.=  7.66443803842696E-05
(PID.TID 0000.0001)  cg2d: iter=    41 ; resid.=  6.47182358750106E-05
(PID.TID 0000.0001)  cg2d: iter=    42 ; resid.=  5.80659917527822E-05
(PID.TID 0000.0001)  cg2d: iter=    43 ; resid.=  5.18197006473278E-05
(PID.TID 0000.0001)  cg2d: iter=    44 ; resid.=  4.17503664478125E-05
(PID.TID 0000.0001)  cg2d: iter=    45 ; resid.=  3.25671347991070E-05
(PID.TID 0000.0001)  cg2d: iter=    46 ; resid.=  2.58706138731260E-05
(PID.TID 0000.0001)  cg2d: iter=    47 ; resid.=  2.10684103503115E-05
(PID.TID 0000.0001)  cg2d: iter=    48 ; resid.=  1.87192795933303E-05
(PID.TID 0000.0001)  cg2d: iter=    49 ; resid.=  1.56417843928014E-05
(PID.TID 0000.0001)  cg2d: iter=    50 ; resid.=  1.37067177299762E-05
(PID.TID 0000.0001)  cg2d: iter=    51 ; resid.=  1.19192906042839E-05
(PID.TID 0000.0001)  cg2d: iter=    52 ; resid.=  1.02116631167383E-05
(PID.TID 0000.0001)  cg2d: iter=    53 ; resid.=  8.55560832128229E-06
(PID.TID 0000.0001)  cg2d: iter=    54 ; resid.=  6.71899120574256E-06
(PID.TID 0000.0001)  cg2d: iter=    55 ; resid.=  5.02436090894637E-06
(PID.TID 0000.0001)  cg2d: iter=    56 ; resid.=  3.98086972681349E-06
(PID.TID 0000.0001)  cg2d: iter=    57 ; resid.=  3.31009804890928E-06
(PID.TID 0000.0001)  cg2d: iter=    58 ; resid.=  2.74666397883784E-06
(PID.TID 0000.0001)  cg2d: iter=    59 ; resid.=  2.23990542438911E-06
(PID.TID 0000.0001)  cg2d: iter=    60 ; resid.=  1.73843957379736E-06
(PID.TID 0000.0001)  cg2d: iter=    61 ; resid.=  1.50601249940487E-06
(PID.TID 0000.0001)  cg2d: iter=    62 ; resid.=  1.24623827035326E-06
(PID.TID 0000.0001)  cg2d: iter=    63 ; resid.=  9.07381613095447E-07
(PID.TID 0000.0001)  cg2d: iter=    64 ; resid.=  6.98859248652600E-07
(PID.TID 0000.0001)  cg2d: iter=    65 ; resid.=  5.80943348494748E-07
(PID.TID 0000.0001)  cg2d: iter=    66 ; resid.=  4.63841684841238E-07
(PID.TID 0000.0001)  cg2d: iter=    67 ; resid.=  3.40751577972071E-07
(PID.TID 0000.0001)  cg2d: iter=    68 ; resid.=  2.58032473559654E-07
(PID.TID 0000.0001)  cg2d: iter=    69 ; resid.=  2.10515663320196E-07
(PID.TID 0000.0001)  cg2d: iter=    70 ; resid.=  1.82727736454130E-07
(PID.TID 0000.0001)  cg2d: iter=    71 ; resid.=  1.49468068301981E-07
(PID.TID 0000.0001)  cg2d: iter=    72 ; resid.=  1.23506914284955E-07
(PID.TID 0000.0001)  cg2d: iter=    73 ; resid.=  1.03534811518794E-07
(PID.TID 0000.0001)  cg2d: iter=    74 ; resid.=  8.74498970549920E-08
(PID.TID 0000.0001)  cg2d: iter=    75 ; resid.=  7.98557510461001E-08
(PID.TID 0000.0001)  cg2d: iter=    76 ; resid.=  7.34216451675230E-08
(PID.TID 0000.0001)  cg2d: iter=    77 ; resid.=  6.10940681471393E-08
(PID.TID 0000.0001)  cg2d: iter=    78 ; resid.=  4.70048297894583E-08
(PID.TID 0000.0001)  cg2d: iter=    79 ; resid.=  3.78489881859262E-08
(PID.TID 0000.0001)  cg2d: iter=    80 ; resid.=  3.34451428634406E-08
(PID.TID 0000.0001)  cg2d: iter=    81 ; resid.=  2.77198746293278E-08
(PID.TID 0000.0001)  cg2d: iter=    82 ; resid.=  2.05082209845225E-08
(PID.TID 0000.0001)  cg2d: iter=    83 ; resid.=  1.54540707334832E-08
(PID.TID 0000.0001)  cg2d: iter=    84 ; resid.=  1.27198804284078E-08
(PID.TID 0000.0001)  cg2d: iter=    85 ; resid.=  1.09534371581067E-08
(PID.TID 0000.0001)  cg2d: iter=    86 ; resid.=  8.30824055869023E-09
(PID.TID 0000.0001)  cg2d: iter=    87 ; resid.=  6.41878687662437E-09
(PID.TID 0000.0001)  cg2d: iter=    88 ; resid.=  5.17033545158621E-09
(PID.TID 0000.0001)  cg2d: iter=    89 ; resid.=  4.55239248186613E-09
(PID.TID 0000.0001)  cg2d: iter=    90 ; resid.=  3.82930687252300E-09
(PID.TID 0000.0001)  cg2d: iter=    91 ; resid.=  3.04832551252837E-09
(PID.TID 0000.0001)  cg2d: iter=    92 ; resid.=  2.18691078468360E-09
(PID.TID 0000.0001)  cg2d: iter=    93 ; resid.=  1.46211682994295E-09
(PID.TID 0000.0001)  cg2d: iter=    94 ; resid.=  1.04753590685353E-09
(PID.TID 0000.0001)  cg2d: iter=    95 ; resid.=  8.98278120984491E-10
(PID.TID 0000.0001)  cg2d: iter=    96 ; resid.=  7.41869122176335E-10
(PID.TID 0000.0001)  cg2d: iter=    97 ; resid.=  5.82795843166258E-10
(PID.TID 0000.0001)  cg2d: iter=    98 ; resid.=  4.85532477610988E-10
(PID.TID 0000.0001)  cg2d: iter=    99 ; resid.=  4.37843779980694E-10
(PID.TID 0000.0001)  cg2d: iter=   100 ; resid.=  4.22215360494800E-10
(PID.TID 0000.0001)  cg2d: iter=   101 ; resid.=  3.72327258708662E-10
(PID.TID 0000.0001)  cg2d: iter=   102 ; resid.=  2.77660639297544E-10
(PID.TID 0000.0001)  cg2d: iter=   103 ; resid.=  1.93482981369780E-10
(PID.TID 0000.0001)  cg2d: iter=   104 ; resid.=  1.54674841329911E-10
(PID.TID 0000.0001)  cg2d: iter=   105 ; resid.=  1.36395622716725E-10
(PID.TID 0000.0001)  cg2d: iter=   106 ; resid.=  1.08056266036010E-10
(PID.TID 0000.0001)  cg2d: iter=   107 ; resid.=  7.75354883777838E-11
(PID.TID 0000.0001)  cg2d: iter=   108 ; resid.=  5.90563590174965E-11
(PID.TID 0000.0001)  cg2d: iter=   109 ; resid.=  4.71273104861290E-11
(PID.TID 0000.0001)  cg2d: iter=   110 ; resid.=  3.99728923523698E-11
(PID.TID 0000.0001)  cg2d: iter=   111 ; resid.=  2.92670912085679E-11
(PID.TID 0000.0001)  cg2d: iter=   112 ; resid.=  2.08944908070119E-11
(PID.TID 0000.0001)  cg2d: iter=   113 ; resid.=  1.52667272494492E-11
(PID.TID 0000.0001)  cg2d: iter=   114 ; resid.=  1.14920058080208E-11
(PID.TID 0000.0001)  cg2d: iter=   115 ; resid.=  9.00827248400185E-12
(PID.TID 0000.0001)  cg2d: iter=   116 ; resid.=  6.84979579042707E-12
(PID.TID 0000.0001)  cg2d: iter=   117 ; resid.=  5.34494645221957E-12
(PID.TID 0000.0001)  cg2d: iter=   118 ; resid.=  4.18049799924480E-12
(PID.TID 0000.0001)  cg2d: iter=   119 ; resid.=  3.42538782134903E-12
(PID.TID 0000.0001)  cg2d: iter=   120 ; resid.=  2.69962308533315E-12
(PID.TID 0000.0001)  cg2d: iter=   121 ; resid.=  1.92558885982824E-12
(PID.TID 0000.0001)  cg2d: iter=   122 ; resid.=  1.33368159810244E-12
(PID.TID 0000.0001)  cg2d: iter=   123 ; resid.=  1.00376543148605E-12
(PID.TID 0000.0001)  cg2d: iter=   124 ; resid.=  8.04324068738210E-13
(PID.TID 0000.0001)  cg2d: iter=   125 ; resid.=  6.31540640622987E-13
(PID.TID 0000.0001)  cg2d: iter=   126 ; resid.=  4.66177436318445E-13
(PID.TID 0000.0001)  cg2d: iter=   127 ; resid.=  3.11813341009280E-13
(PID.TID 0000.0001)  cg2d: iter=   128 ; resid.=  1.98728804564228E-13
(PID.TID 0000.0001)  cg2d: iter=   129 ; resid.=  1.41124794319348E-13
(PID.TID 0000.0001)  cg2d: iter=   130 ; resid.=  1.11863494091330E-13
(PID.TID 0000.0001)  cg2d: iter=   131 ; resid.=  8.72285202489921E-14
DEBUG_STATS_RL:    cg2d_x (SOLVE_FOR_PRESSURE)  min= -1.77563230598528E+01
DEBUG_STATS_RL:    cg2d_x (SOLVE_FOR_PRESSURE)  max=  8.16861632828357E+00
DEBUG_STATS_RL:    cg2d_x (SOLVE_FOR_PRESSURE) mean= -1.73315512784158E+00
DEBUG_STATS_RL:    cg2d_x (SOLVE_FOR_PRESSURE) S.D.=  6.72054365154166E+00
(PID.TID 0000.0001)      cg2d_init_res =   2.94053626442695E-01
(PID.TID 0000.0001)      cg2d_iters(min,last) =      -1     131
(PID.TID 0000.0001)      cg2d_last_res =   8.72285202489921E-14
(PID.TID 0000.0001) // =======================================================
(PID.TID 0000.0001) // Begin MONITOR dynamic field statistics
(PID.TID 0000.0001) // =======================================================
(PID.TID 0000.0001) %MON time_tsnumber                =                    49
(PID.TID 0000.0001) %MON time_secondsf                =   4.2336000000000E+06
(PID.TID 0000.0001) %MON dynstat_eta_max              =   8.3268260227153E-01
(PID.TID 0000.0001) %MON dynstat_eta_min              =  -1.8100227380075E+00
(PID.TID 0000.0001) %MON dynstat_eta_mean             =  -3.7024057884928E-03
(PID.TID 0000.0001) %MON dynstat_eta_sd               =   5.9219518997881E-01
(PID.TID 0000.0001) %MON dynstat_eta_del2             =   2.2354543902994E-03
(PID.TID 0000.0001) %MON dynstat_uvel_max             =   1.8291075880268E-01
(PID.TID 0000.0001) %MON dynstat_uvel_min             =  -1.3096680738829E-01
(PID.TID 0000.0001) %MON dynstat_uvel_mean            =   2.1237004132544E-03
(PID.TID 0000.0001) %MON dynstat_uvel_sd              =   1.4563082068680E-02
(PID.TID 0000.0001) %MON dynstat_uvel_del2            =   8.5281451010897E-05
(PID.TID 0000.0001) %MON dynstat_vvel_max             =   1.3216164210125E-01
(PID.TID 0000.0001) %MON dynstat_vvel_min             =  -9.9321318776008E-02
(PID.TID 0000.0001) %MON dynstat_vvel_mean            =   1.4860401187020E-05
(PID.TID 0000.0001) %MON dynstat_vvel_sd              =   8.4702120821894E-03
(PID.TID 0000.0001) %MON dynstat_vvel_del2            =   7.4100900373043E-05
(PID.TID 0000.0001) %MON dynstat_wvel_max             =   1.4419251988713E-04
(PID.TID 0000.0001) %MON dynstat_wvel_min             =  -8.2300279798957E-05
(PID.TID 0000.0001) %MON dynstat_wvel_mean            =   4.6286710378447E-23
(PID.TID 0000.0001) %MON dynstat_wvel_sd              =   1.2235109265955E-05
(PID.TID 0000.0001) %MON dynstat_wvel_del2            =   1.2524225028894E-07
(PID.TID 0000.0001) %MON dynstat_theta_max            =   3.0351447590722E+01
(PID.TID 0000.0001) %MON dynstat_theta_min            =  -1.9852436518340E+00
(PID.TID 0000.0001) %MON dynstat_theta_mean           =   3.6226276961831E+00
(PID.TID 0000.0001) %MON dynstat_theta_sd             =   4.4212198861189E+00
(PID.TID 0000.0001) %MON dynstat_theta_del2           =   4.7659102484078E-03
(PID.TID 0000.0001) %MON dynstat_salt_max             =   3.7458350980750E+01
(PID.TID 0000.0001) %MON dynstat_salt_min             =   2.9847414111738E+01
(PID.TID 0000.0001) %MON dynstat_salt_mean            =   3.4717985215275E+01
(PID.TID 0000.0001) %MON dynstat_salt_sd              =   2.9637292643042E-01
(PID.TID 0000.0001) %MON dynstat_salt_del2            =   9.8662355690676E-04
(PID.TID 0000.0001) %MON dynstat_sst_max              =   3.0351447590722E+01
(PID.TID 0000.0001) %MON dynstat_sst_min              =  -1.9852436518340E+00
(PID.TID 0000.0001) %MON dynstat_sst_mean             =   1.8923057576464E+01
(PID.TID 0000.0001) %MON dynstat_sst_sd               =   9.0168430150958E+00
(PID.TID 0000.0001) %MON dynstat_sst_del2             =   2.7396973208399E-02
(PID.TID 0000.0001) %MON dynstat_sss_max              =   3.7438284424269E+01
(PID.TID 0000.0001) %MON dynstat_sss_min              =   2.9847414111738E+01
(PID.TID 0000.0001) %MON dynstat_sss_mean             =   3.4843664370017E+01
(PID.TID 0000.0001) %MON dynstat_sss_sd               =   9.7779894278903E-01
(PID.TID 0000.0001) %MON dynstat_sss_del2             =   7.9074041794271E-03
(PID.TID 0000.0001) %MON forcing_qnet_max             =   3.5005778503418E+02
(PID.TID 0000.0001) %MON forcing_qnet_min             =  -1.7193613128662E+02
(PID.TID 0000.0001) %MON forcing_qnet_mean            =  -1.3295232480064E+01
(PID.TID 0000.0001) %MON forcing_qnet_sd              =   7.5356710185275E+01
(PID.TID 0000.0001) %MON forcing_qnet_del2            =   9.3278656798389E-01
(PID.TID 0000.0001) %MON forcing_qsw_max              =   0.0000000000000E+00
(PID.TID 0000.0001) %MON forcing_qsw_min              =   0.0000000000000E+00
(PID.TID 0000.0001) %MON forcing_qsw_mean             =   0.0000000000000E+00
(PID.TID 0000.0001) %MON forcing_qsw_sd               =   0.0000000000000E+00
(PID.TID 0000.0001) %MON forcing_qsw_del2             =   0.0000000000000E+00
(PID.TID 0000.0001) %MON forcing_empmr_max            =   7.0250469974553E-05
(PID.TID 0000.0001) %MON forcing_empmr_min            =  -7.5240552988021E-05
(PID.TID 0000.0001) %MON forcing_empmr_mean           =   9.0413918728631E-07
(PID.TID 0000.0001) %MON forcing_empmr_sd             =   2.7719997009048E-05
(PID.TID 0000.0001) %MON forcing_empmr_del2           =   3.5454115748184E-07
(PID.TID 0000.0001) %MON forcing_fu_max               =   3.0860858261585E-01
(PID.TID 0000.0001) %MON forcing_fu_min               =  -2.3188623934984E-01
(PID.TID 0000.0001) %MON forcing_fu_mean              =   1.7913340385011E-02
(PID.TID 0000.0001) %MON forcing_fu_sd                =   9.3092736930720E-02
(PID.TID 0000.0001) %MON forcing_fu_del2              =   7.2682591920009E-04
(PID.TID 0000.0001) %MON forcing_fv_max               =   1.8452488817275E-01
(PID.TID 0000.0001) %MON forcing_fv_min               =  -1.9522114694119E-01
(PID.TID 0000.0001) %MON forcing_fv_mean              =  -7.2480099908687E-03
(PID.TID 0000.0001) %MON forcing_fv_sd                =   4.4132733305549E-02
(PID.TID 0000.0001) %MON forcing_fv_del2              =   5.1914537239774E-04
(PID.TID 0000.0001) %MON trAdv_CFL_u_max              =   4.7108966676206E-02
(PID.TID 0000.0001) %MON trAdv_CFL_v_max              =   2.8038184963252E-02
(PID.TID 0000.0001) %MON trAdv_CFL_w_max              =   3.6360945488004E-02
(PID.TID 0000.0001) %MON advcfl_uvel_max              =   4.7819248255746E-02
(PID.TID 0000.0001) %MON advcfl_vvel_max              =   2.5676887442367E-02
(PID.TID 0000.0001) %MON advcfl_wvel_max              =   4.4207136900839E-02
(PID.TID 0000.0001) %MON advcfl_W_hf_max              =   5.3680094808161E-02
(PID.TID 0000.0001) %MON pe_b_mean                    =   4.4877424658376E-04
(PID.TID 0000.0001) %MON ke_max                       =   1.6874431381314E-02
(PID.TID 0000.0001) %MON ke_mean                      =   1.3061103481473E-04
(PID.TID 0000.0001) %MON ke_vol                       =   1.3226782436723E+18
(PID.TID 0000.0001) %MON vort_r_min                   =  -4.7519302611908E-07
(PID.TID 0000.0001) %MON vort_r_max                   =   4.0220331724290E-07
(PID.TID 0000.0001) %MON vort_a_mean                  =  -2.5274807049750E-05
(PID.TID 0000.0001) %MON vort_a_sd                    =   7.3604643091498E-05
(PID.TID 0000.0001) %MON vort_p_mean                  =  -3.1845655361378E-05
(PID.TID 0000.0001) %MON vort_p_sd                    =   1.3162459088538E-04
(PID.TID 0000.0001) %MON surfExpan_theta_mean         =   3.4544422139538E-07
(PID.TID 0000.0001) %MON surfExpan_salt_mean          =  -1.7376698221085E-08
(PID.TID 0000.0001) // =======================================================
(PID.TID 0000.0001) // End MONITOR dynamic field statistics
(PID.TID 0000.0001) // =======================================================
 EXTERNAL_FIELDS_LOAD,        49 : iP,iLd,i0,i1=    2    3    2    3 ; Wght=  0.8666666667  0.1333333333
 EXTERNAL_FIELDS_LOAD: (fu0,1),fu,fv= -1.4435E-02 -2.7199E-02 -1.6137E-02 -1.5361E-02
 EXTERNAL_FIELDS_LOAD: SST,SSS,Q,E-P= -4.8546E-01  3.4442E+01  2.3714E+02  8.4710E-06
DEBUG_STATS_RL:          Uvel (THERMODYNAMICS)  min= -1.30966807388288E-01
DEBUG_STATS_RL:          Uvel (THERMODYNAMICS)  max=  1.82910758802680E-01
DEBUG_STATS_RL:          Uvel (THERMODYNAMICS) mean=  5.59134093705046E-03
DEBUG_STATS_RL:          Uvel (THERMODYNAMICS) S.D.=  2.41724740650606E-02
DEBUG_STATS_RL:          Vvel (THERMODYNAMICS)  min= -9.93213187760075E-02
DEBUG_STATS_RL:          Vvel (THERMODYNAMICS)  max=  1.32161642101251E-01
DEBUG_STATS_RL:          Vvel (THERMODYNAMICS) mean=  1.47720448078978E-03
DEBUG_STATS_RL:          Vvel (THERMODYNAMICS) S.D.=  1.39564190491412E-02
DEBUG_STATS_RL:          Wvel (THERMODYNAMICS)  min= -8.23002797989567E-05
DEBUG_STATS_RL:          Wvel (THERMODYNAMICS)  max=  1.44192519887131E-04
DEBUG_STATS_RL:          Wvel (THERMODYNAMICS) mean=  1.54808179114635E-08
DEBUG_STATS_RL:          Wvel (THERMODYNAMICS) S.D.=  1.08838904154463E-05
DEBUG_STATS_RL:         Theta (THERMODYNAMICS)  min= -1.98356795440306E+00
DEBUG_STATS_RL:         Theta (THERMODYNAMICS)  max=  3.03642854891394E+01
DEBUG_STATS_RL:         Theta (THERMODYNAMICS) mean=  3.21837371153329E+00
DEBUG_STATS_RL:         Theta (THERMODYNAMICS) S.D.=  5.87168431697420E+00
DEBUG_STATS_RL:          Salt (THERMODYNAMICS)  min= -1.90819582357449E-17
DEBUG_STATS_RL:          Salt (THERMODYNAMICS)  max=  3.74591837499118E+01
DEBUG_STATS_RL:          Salt (THERMODYNAMICS) mean=  1.88449344546418E+01
DEBUG_STATS_RL:          Salt (THERMODYNAMICS) S.D.=  1.73004517421293E+01
DEBUG_STATS_RL:         GtNm1 (THERMODYNAMICS)  min= -4.98433516326697E-06
DEBUG_STATS_RL:         GtNm1 (THERMODYNAMICS)  max=  2.84368158758146E-06
DEBUG_STATS_RL:         GtNm1 (THERMODYNAMICS) mean=  5.41626089914970E-09
DEBUG_STATS_RL:         GtNm1 (THERMODYNAMICS) S.D.=  1.88468038246114E-07
DEBUG_STATS_RL:         GsNm1 (THERMODYNAMICS)  min= -5.15647294253467E-07
DEBUG_STATS_RL:         GsNm1 (THERMODYNAMICS)  max=  3.29432546157713E-07
DEBUG_STATS_RL:         GsNm1 (THERMODYNAMICS) mean=  1.14413691964259E-10
DEBUG_STATS_RL:         GsNm1 (THERMODYNAMICS) S.D.=  1.82855197431257E-08
DEBUG_STATS_RL:                EtaN (DYNAMICS)  min= -1.81002273800750E+00
DEBUG_STATS_RL:                EtaN (DYNAMICS)  max=  8.32682602271527E-01
DEBUG_STATS_RL:                EtaN (DYNAMICS) mean= -1.76672286222384E-01
DEBUG_STATS_RL:                EtaN (DYNAMICS) S.D.=  6.85070708617906E-01
DEBUG_STATS_RL:                Uvel (DYNAMICS)  min= -1.30966807388288E-01
DEBUG_STATS_RL:                Uvel (DYNAMICS)  max=  1.82910758802680E-01
DEBUG_STATS_RL:                Uvel (DYNAMICS) mean=  5.59134093705046E-03
DEBUG_STATS_RL:                Uvel (DYNAMICS) S.D.=  2.41724740650606E-02
DEBUG_STATS_RL:                Vvel (DYNAMICS)  min= -9.93213187760075E-02
DEBUG_STATS_RL:                Vvel (DYNAMICS)  max=  1.32161642101251E-01
DEBUG_STATS_RL:                Vvel (DYNAMICS) mean=  1.47720448078978E-03
DEBUG_STATS_RL:                Vvel (DYNAMICS) S.D.=  1.39564190491412E-02
DEBUG_STATS_RL:                Wvel (DYNAMICS)  min= -8.23002797989567E-05
DEBUG_STATS_RL:                Wvel (DYNAMICS)  max=  1.44192519887131E-04
DEBUG_STATS_RL:                Wvel (DYNAMICS) mean=  1.54808179114635E-08
DEBUG_STATS_RL:                Wvel (DYNAMICS) S.D.=  1.08838904154463E-05
DEBUG_STATS_RL:               Theta (DYNAMICS)  min= -1.98356795440306E+00
DEBUG_STATS_RL:               Theta (DYNAMICS)  max=  3.03642854891394E+01
DEBUG_STATS_RL:               Theta (DYNAMICS) mean=  3.21837371153329E+00
DEBUG_STATS_RL:               Theta (DYNAMICS) S.D.=  5.87168431697420E+00
DEBUG_STATS_RL:                Salt (DYNAMICS)  min= -1.90819582357449E-17
DEBUG_STATS_RL:                Salt (DYNAMICS)  max=  3.74591837499118E+01
DEBUG_STATS_RL:                Salt (DYNAMICS) mean=  1.88449344546418E+01
DEBUG_STATS_RL:                Salt (DYNAMICS) S.D.=  1.73004517421293E+01
DEBUG_STATS_RL:                  Gu (DYNAMICS)  min= -1.29223433823160E-01
DEBUG_STATS_RL:                  Gu (DYNAMICS)  max=  1.91280013622390E-01
DEBUG_STATS_RL:                  Gu (DYNAMICS) mean=  5.50002901028385E-03
DEBUG_STATS_RL:                  Gu (DYNAMICS) S.D.=  2.42382048555358E-02
DEBUG_STATS_RL:                  Gv (DYNAMICS)  min= -9.74073474661606E-02
DEBUG_STATS_RL:                  Gv (DYNAMICS)  max=  1.35936085989943E-01
DEBUG_STATS_RL:                  Gv (DYNAMICS) mean=  4.04677519911938E-03
DEBUG_STATS_RL:                  Gv (DYNAMICS) S.D.=  1.54014416546494E-02
DEBUG_STATS_RL:               GuNm1 (DYNAMICS)  min= -9.35411682402269E-06
DEBUG_STATS_RL:               GuNm1 (DYNAMICS)  max=  8.83578154602549E-06
DEBUG_STATS_RL:               GuNm1 (DYNAMICS) mean= -8.90285711831120E-09
DEBUG_STATS_RL:               GuNm1 (DYNAMICS) S.D.=  1.17743318588698E-06
DEBUG_STATS_RL:               GvNm1 (DYNAMICS)  min= -9.55272615681294E-06
DEBUG_STATS_RL:               GvNm1 (DYNAMICS)  max=  1.64026472480616E-05
DEBUG_STATS_RL:               GvNm1 (DYNAMICS) mean=  7.46578177568188E-07
DEBUG_STATS_RL:               GvNm1 (DYNAMICS) S.D.=  2.60084102758962E-06
DEBUG_STATS_RL:               GtNm1 (DYNAMICS)  min= -4.98433516326697E-06
DEBUG_STATS_RL:               GtNm1 (DYNAMICS)  max=  2.84368158758146E-06
DEBUG_STATS_RL:               GtNm1 (DYNAMICS) mean=  5.41626089914970E-09
DEBUG_STATS_RL:               GtNm1 (DYNAMICS) S.D.=  1.88468038246114E-07
DEBUG_STATS_RL:               GsNm1 (DYNAMICS)  min= -5.15647294253467E-07
DEBUG_STATS_RL:               GsNm1 (DYNAMICS)  max=  3.29432546157713E-07
DEBUG_STATS_RL:               GsNm1 (DYNAMICS) mean=  1.14413691964259E-10
DEBUG_STATS_RL:               GsNm1 (DYNAMICS) S.D.=  1.82855197431257E-08
DEBUG_STATS_RL:    cg2d_b (SOLVE_FOR_PRESSURE)  min= -2.01477906969011E+04
DEBUG_STATS_RL:    cg2d_b (SOLVE_FOR_PRESSURE)  max=  2.53722723721528E+04
DEBUG_STATS_RL:    cg2d_b (SOLVE_FOR_PRESSURE) mean=  3.61977754515166E+00
DEBUG_STATS_RL:    cg2d_b (SOLVE_FOR_PRESSURE) S.D.=  3.69756525594535E+03
 cg2d: Sum(rhs),rhsMax =   3.30273335163444E-01  1.66651878177741E+00
(PID.TID 0000.0001)  cg2d: iter=     1 ; resid.=  8.30784040980740E-02
(PID.TID 0000.0001)  cg2d: iter=     2 ; resid.=  4.74308680713621E-02
(PID.TID 0000.0001)  cg2d: iter=     3 ; resid.=  5.18324017045728E-02
(PID.TID 0000.0001)  cg2d: iter=     4 ; resid.=  5.52232450226939E-02
(PID.TID 0000.0001)  cg2d: iter=     5 ; resid.=  4.95479249716971E-02
(PID.TID 0000.0001)  cg2d: iter=     6 ; resid.=  4.30324050112614E-02
(PID.TID 0000.0001)  cg2d: iter=     7 ; resid.=  3.51142942147924E-02
(PID.TID 0000.0001)  cg2d: iter=     8 ; resid.=  2.70423773985798E-02
(PID.TID 0000.0001)  cg2d: iter=     9 ; resid.=  2.11265645887702E-02
(PID.TID 0000.0001)  cg2d: iter=    10 ; resid.=  1.80491309300381E-02
(PID.TID 0000.0001)  cg2d: iter=    11 ; resid.=  1.48636344901298E-02
(PID.TID 0000.0001)  cg2d: iter=    12 ; resid.=  1.17756350291746E-02
(PID.TID 0000.0001)  cg2d: iter=    13 ; resid.=  9.15214530786040E-03
(PID.TID 0000.0001)  cg2d: iter=    14 ; resid.=  7.76808466777079E-03
(PID.TID 0000.0001)  cg2d: iter=    15 ; resid.=  7.14953697608275E-03
(PID.TID 0000.0001)  cg2d: iter=    16 ; resid.=  5.88657693030727E-03
(PID.TID 0000.0001)  cg2d: iter=    17 ; resid.=  5.13015394366552E-03
(PID.TID 0000.0001)  cg2d: iter=    18 ; resid.=  4.48073602023820E-03
(PID.TID 0000.0001)  cg2d: iter=    19 ; resid.=  3.94479387534258E-03
(PID.TID 0000.0001)  cg2d: iter=    20 ; resid.=  3.07815527025903E-03
(PID.TID 0000.0001)  cg2d: iter=    21 ; resid.=  2.35953625799570E-03
(PID.TID 0000.0001)  cg2d: iter=    22 ; resid.=  2.14261938578414E-03
(PID.TID 0000.0001)  cg2d: iter=    23 ; resid.=  1.86223374030147E-03
(PID.TID 0000.0001)  cg2d: iter=    24 ; resid.=  1.39894668392137E-03
(PID.TID 0000.0001)  cg2d: iter=    25 ; resid.=  1.08955361418355E-03
(PID.TID 0000.0001)  cg2d: iter=    26 ; resid.=  8.92296584484868E-04
(PID.TID 0000.0001)  cg2d: iter=    27 ; resid.=  7.65122416246092E-04
(PID.TID 0000.0001)  cg2d: iter=    28 ; resid.=  6.61123017030996E-04
(PID.TID 0000.0001)  cg2d: iter=    29 ; resid.=  5.56320470626820E-04
(PID.TID 0000.0001)  cg2d: iter=    30 ; resid.=  4.25667341140454E-04
(PID.TID 0000.0001)  cg2d: iter=    31 ; resid.=  3.48978809226200E-04
(PID.TID 0000.0001)  cg2d: iter=    32 ; resid.=  2.86436242864515E-04
(PID.TID 0000.0001)  cg2d: iter=    33 ; resid.=  2.24970297016985E-04
(PID.TID 0000.0001)  cg2d: iter=    34 ; resid.=  1.81133469686548E-04
(PID.TID 0000.0001)  cg2d: iter=    35 ; resid.=  1.41859534016069E-04
(PID.TID 0000.0001)  cg2d: iter=    36 ; resid.=  1.18594605656754E-04
(PID.TID 0000.0001)  cg2d: iter=    37 ; resid.=  1.03058909920308E-04
(PID.TID 0000.0001)  cg2d: iter=    38 ; resid.=  9.44303005441433E-05
(PID.TID 0000.0001)  cg2d: iter=    39 ; resid.=  8.08308304788480E-05
(PID.TID 0000.0001)  cg2d: iter=    40 ; resid.=  6.86833503200615E-05
(PID.TID 0000.0001)  cg2d: iter=    41 ; resid.=  5.67597978522571E-05
(PID.TID 0000.0001)  cg2d: iter=    42 ; resid.=  5.12724911603329E-05
(PID.TID 0000.0001)  cg2d: iter=    43 ; resid.=  4.61338836301416E-05
(PID.TID 0000.0001)  cg2d: iter=    44 ; resid.=  3.73802799136415E-05
(PID.TID 0000.0001)  cg2d: iter=    45 ; resid.=  2.91337167583203E-05
(PID.TID 0000.0001)  cg2d: iter=    46 ; resid.=  2.33318412636802E-05
(PID.TID 0000.0001)  cg2d: iter=    47 ; resid.=  1.94093535947742E-05
(PID.TID 0000.0001)  cg2d: iter=    48 ; resid.=  1.73491561326729E-05
(PID.TID 0000.0001)  cg2d: iter=    49 ; resid.=  1.45729054359736E-05
(PID.TID 0000.0001)  cg2d: iter=    50 ; resid.=  1.28722575260626E-05
(PID.TID 0000.0001)  cg2d: iter=    51 ; resid.=  1.14808042477142E-05
(PID.TID 0000.0001)  cg2d: iter=    52 ; resid.=  9.91349153056228E-06
(PID.TID 0000.0001)  cg2d: iter=    53 ; resid.=  8.44874626299551E-06
(PID.TID 0000.0001)  cg2d: iter=    54 ; resid.=  6.74915734625462E-06
(PID.TID 0000.0001)  cg2d: iter=    55 ; resid.=  5.07514094860162E-06
(PID.TID 0000.0001)  cg2d: iter=    56 ; resid.=  4.07951343577791E-06
(PID.TID 0000.0001)  cg2d: iter=    57 ; resid.=  3.47682671083785E-06
(PID.TID 0000.0001)  cg2d: iter=    58 ; resid.=  2.90272029029982E-06
(PID.TID 0000.0001)  cg2d: iter=    59 ; resid.=  2.31178520228974E-06
(PID.TID 0000.0001)  cg2d: iter=    60 ; resid.=  1.80034923756754E-06
(PID.TID 0000.0001)  cg2d: iter=    61 ; resid.=  1.58362513629723E-06
(PID.TID 0000.0001)  cg2d: iter=    62 ; resid.=  1.30122063960841E-06
(PID.TID 0000.0001)  cg2d: iter=    63 ; resid.=  9.51683693383616E-07
(PID.TID 0000.0001)  cg2d: iter=    64 ; resid.=  7.56334520303328E-07
(PID.TID 0000.0001)  cg2d: iter=    65 ; resid.=  6.28114902866058E-07
(PID.TID 0000.0001)  cg2d: iter=    66 ; resid.=  5.01295273995039E-07
(PID.TID 0000.0001)  cg2d: iter=    67 ; resid.=  3.76959391693513E-07
(PID.TID 0000.0001)  cg2d: iter=    68 ; resid.=  2.93485605636409E-07
(PID.TID 0000.0001)  cg2d: iter=    69 ; resid.=  2.47446796370792E-07
(PID.TID 0000.0001)  cg2d: iter=    70 ; resid.=  2.22111562139254E-07
(PID.TID 0000.0001)  cg2d: iter=    71 ; resid.=  1.87468623138073E-07
(PID.TID 0000.0001)  cg2d: iter=    72 ; resid.=  1.58827317004899E-07
(PID.TID 0000.0001)  cg2d: iter=    73 ; resid.=  1.33664690704229E-07
(PID.TID 0000.0001)  cg2d: iter=    74 ; resid.=  1.13750397823237E-07
(PID.TID 0000.0001)  cg2d: iter=    75 ; resid.=  1.03698540004493E-07
(PID.TID 0000.0001)  cg2d: iter=    76 ; resid.=  9.33112377023380E-08
(PID.TID 0000.0001)  cg2d: iter=    77 ; resid.=  7.47909131357011E-08
(PID.TID 0000.0001)  cg2d: iter=    78 ; resid.=  5.50708288202094E-08
(PID.TID 0000.0001)  cg2d: iter=    79 ; resid.=  4.33733876917940E-08
(PID.TID 0000.0001)  cg2d: iter=    80 ; resid.=  3.81822346782339E-08
(PID.TID 0000.0001)  cg2d: iter=    81 ; resid.=  3.07132822185467E-08
(PID.TID 0000.0001)  cg2d: iter=    82 ; resid.=  2.21782348516687E-08
(PID.TID 0000.0001)  cg2d: iter=    83 ; resid.=  1.65985065577376E-08
(PID.TID 0000.0001)  cg2d: iter=    84 ; resid.=  1.36656136176719E-08
(PID.TID 0000.0001)  cg2d: iter=    85 ; resid.=  1.15297566501026E-08
(PID.TID 0000.0001)  cg2d: iter=    86 ; resid.=  8.68924681282530E-09
(PID.TID 0000.0001)  cg2d: iter=    87 ; resid.=  6.67921041671958E-09
(PID.TID 0000.0001)  cg2d: iter=    88 ; resid.=  5.26401203685691E-09
(PID.TID 0000.0001)  cg2d: iter=    89 ; resid.=  4.64648703185647E-09
(PID.TID 0000.0001)  cg2d: iter=    90 ; resid.=  4.00413800014552E-09
(PID.TID 0000.0001)  cg2d: iter=    91 ; resid.=  3.18551509869646E-09
(PID.TID 0000.0001)  cg2d: iter=    92 ; resid.=  2.21787637315877E-09
(PID.TID 0000.0001)  cg2d: iter=    93 ; resid.=  1.46235111491643E-09
(PID.TID 0000.0001)  cg2d: iter=    94 ; resid.=  1.08715521520114E-09
(PID.TID 0000.0001)  cg2d: iter=    95 ; resid.=  9.73401931394753E-10
(PID.TID 0000.0001)  cg2d: iter=    96 ; resid.=  8.08398363318620E-10
(PID.TID 0000.0001)  cg2d: iter=    97 ; resid.=  6.11668487918764E-10
(PID.TID 0000.0001)  cg2d: iter=    98 ; resid.=  4.84918983161841E-10
(PID.TID 0000.0001)  cg2d: iter=    99 ; resid.=  4.41074670572027E-10
(PID.TID 0000.0001)  cg2d: iter=   100 ; resid.=  4.31924224489323E-10
(PID.TID 0000.0001)  cg2d: iter=   101 ; resid.=  3.76269997679994E-10
(PID.TID 0000.0001)  cg2d: iter=   102 ; resid.=  2.77445465336045E-10
(PID.TID 0000.0001)  cg2d: iter=   103 ; resid.=  1.99205847366733E-10
(PID.TID 0000.0001)  cg2d: iter=   104 ; resid.=  1.65107359256828E-10
(PID.TID 0000.0001)  cg2d: iter=   105 ; resid.=  1.47787911943197E-10
(PID.TID 0000.0001)  cg2d: iter=   106 ; resid.=  1.17624067988131E-10
(PID.TID 0000.0001)  cg2d: iter=   107 ; resid.=  8.20893410259090E-11
(PID.TID 0000.0001)  cg2d: iter=   108 ; resid.=  6.02973659195677E-11
(PID.TID 0000.0001)  cg2d: iter=   109 ; resid.=  4.84732803392583E-11
(PID.TID 0000.0001)  cg2d: iter=   110 ; resid.=  4.22828040703893E-11
(PID.TID 0000.0001)  cg2d: iter=   111 ; resid.=  3.05285891251027E-11
(PID.TID 0000.0001)  cg2d: iter=   112 ; resid.=  2.12373404408750E-11
(PID.TID 0000.0001)  cg2d: iter=   113 ; resid.=  1.53189170283969E-11
(PID.TID 0000.0001)  cg2d: iter=   114 ; resid.=  1.17967113529718E-11
(PID.TID 0000.0001)  cg2d: iter=   115 ; resid.=  9.47052841967811E-12
(PID.TID 0000.0001)  cg2d: iter=   116 ; resid.=  7.27910169838196E-12
(PID.TID 0000.0001)  cg2d: iter=   117 ; resid.=  5.53734519153977E-12
(PID.TID 0000.0001)  cg2d: iter=   118 ; resid.=  4.22995708768310E-12
(PID.TID 0000.0001)  cg2d: iter=   119 ; resid.=  3.58564191286350E-12
(PID.TID 0000.0001)  cg2d: iter=   120 ; resid.=  2.93894332324801E-12
(PID.TID 0000.0001)  cg2d: iter=   121 ; resid.=  2.10840616953780E-12
(PID.TID 0000.0001)  cg2d: iter=   122 ; resid.=  1.44535807450306E-12
(PID.TID 0000.0001)  cg2d: iter=   123 ; resid.=  1.08134755802702E-12
(PID.TID 0000.0001)  cg2d: iter=   124 ; resid.=  8.71145990749236E-13
(PID.TID 0000.0001)  cg2d: iter=   125 ; resid.=  6.92466958544502E-13
(PID.TID 0000.0001)  cg2d: iter=   126 ; resid.=  5.03181354555641E-13
(PID.TID 0000.0001)  cg2d: iter=   127 ; resid.=  3.21216473338238E-13
(PID.TID 0000.0001)  cg2d: iter=   128 ; resid.=  1.96019615336342E-13
(PID.TID 0000.0001)  cg2d: iter=   129 ; resid.=  1.39967508931566E-13
(PID.TID 0000.0001)  cg2d: iter=   130 ; resid.=  1.13343965893175E-13
(PID.TID 0000.0001)  cg2d: iter=   131 ; resid.=  8.79019688927549E-14
DEBUG_STATS_RL:    cg2d_x (SOLVE_FOR_PRESSURE)  min= -1.79965493994127E+01
DEBUG_STATS_RL:    cg2d_x (SOLVE_FOR_PRESSURE)  max=  8.22515503269273E+00
DEBUG_STATS_RL:    cg2d_x (SOLVE_FOR_PRESSURE) mean= -1.74508134929099E+00
DEBUG_STATS_RL:    cg2d_x (SOLVE_FOR_PRESSURE) S.D.=  6.77675387312907E+00
(PID.TID 0000.0001)      cg2d_init_res =   2.87107957219199E-01
(PID.TID 0000.0001)      cg2d_iters(min,last) =      -1     131
(PID.TID 0000.0001)      cg2d_last_res =   8.79019688927549E-14
(PID.TID 0000.0001) // =======================================================
(PID.TID 0000.0001) // Begin MONITOR dynamic field statistics
(PID.TID 0000.0001) // =======================================================
(PID.TID 0000.0001) %MON time_tsnumber                =                    50
(PID.TID 0000.0001) %MON time_secondsf                =   4.3200000000000E+06
(PID.TID 0000.0001) %MON dynstat_eta_max              =   8.3844597682902E-01
(PID.TID 0000.0001) %MON dynstat_eta_min              =  -1.8345106421419E+00
(PID.TID 0000.0001) %MON dynstat_eta_mean             =  -3.7767890307675E-03
(PID.TID 0000.0001) %MON dynstat_eta_sd               =   5.9776748028721E-01
(PID.TID 0000.0001) %MON dynstat_eta_del2             =   2.2515611478947E-03
(PID.TID 0000.0001) %MON dynstat_uvel_max             =   1.8617802228326E-01
(PID.TID 0000.0001) %MON dynstat_uvel_min             =  -1.2929083132863E-01
(PID.TID 0000.0001) %MON dynstat_uvel_mean            =   2.1742204128241E-03
(PID.TID 0000.0001) %MON dynstat_uvel_sd              =   1.4441718020474E-02
(PID.TID 0000.0001) %MON dynstat_uvel_del2            =   8.4734103783650E-05
(PID.TID 0000.0001) %MON dynstat_vvel_max             =   1.3498257718753E-01
(PID.TID 0000.0001) %MON dynstat_vvel_min             =  -9.7459493180336E-02
(PID.TID 0000.0001) %MON dynstat_vvel_mean            =   5.9657678503927E-06
(PID.TID 0000.0001) %MON dynstat_vvel_sd              =   8.4308658023084E-03
(PID.TID 0000.0001) %MON dynstat_vvel_del2            =   7.3627694059144E-05
(PID.TID 0000.0001) %MON dynstat_wvel_max             =   1.4601264134185E-04
(PID.TID 0000.0001) %MON dynstat_wvel_min             =  -7.9368526807612E-05
(PID.TID 0000.0001) %MON dynstat_wvel_mean            =  -1.3740363653225E-22
(PID.TID 0000.0001) %MON dynstat_wvel_sd              =   1.2014510065921E-05
(PID.TID 0000.0001) %MON dynstat_wvel_del2            =   1.2368918267069E-07
(PID.TID 0000.0001) %MON dynstat_theta_max            =   3.0364285489139E+01
(PID.TID 0000.0001) %MON dynstat_theta_min            =  -1.9835679544031E+00
(PID.TID 0000.0001) %MON dynstat_theta_mean           =   3.6226930331603E+00
(PID.TID 0000.0001) %MON dynstat_theta_sd             =   4.4214324121905E+00
(PID.TID 0000.0001) %MON dynstat_theta_del2           =   4.7767274046234E-03
(PID.TID 0000.0001) %MON dynstat_salt_max             =   3.7459183749912E+01
(PID.TID 0000.0001) %MON dynstat_salt_min             =   2.9849919964967E+01
(PID.TID 0000.0001) %MON dynstat_salt_mean            =   3.4717986653963E+01
(PID.TID 0000.0001) %MON dynstat_salt_sd              =   2.9638096610276E-01
(PID.TID 0000.0001) %MON dynstat_salt_del2            =   9.8688461411004E-04
(PID.TID 0000.0001) %MON dynstat_sst_max              =   3.0364285489139E+01
(PID.TID 0000.0001) %MON dynstat_sst_min              =  -1.9835679544031E+00
(PID.TID 0000.0001) %MON dynstat_sst_mean             =   1.8930361688422E+01
(PID.TID 0000.0001) %MON dynstat_sst_sd               =   9.0200330526760E+00
(PID.TID 0000.0001) %MON dynstat_sst_del2             =   2.7439782633024E-02
(PID.TID 0000.0001) %MON dynstat_sss_max              =   3.7439323031178E+01
(PID.TID 0000.0001) %MON dynstat_sss_min              =   2.9849919964967E+01
(PID.TID 0000.0001) %MON dynstat_sss_mean             =   3.4843483306249E+01
(PID.TID 0000.0001) %MON dynstat_sss_sd               =   9.7797105862039E-01
(PID.TID 0000.0001) %MON dynstat_sss_del2             =   7.9125979014219E-03
(PID.TID 0000.0001) %MON forcing_qnet_max             =   3.4725963338216E+02
(PID.TID 0000.0001) %MON forcing_qnet_min             =  -1.7163685201009E+02
(PID.TID 0000.0001) %MON forcing_qnet_mean            =  -1.3071892980437E+01
(PID.TID 0000.0001) %MON forcing_qnet_sd              =   7.3968055720569E+01
(PID.TID 0000.0001) %MON forcing_qnet_del2            =   9.2759693781153E-01
(PID.TID 0000.0001) %MON forcing_qsw_max              =   0.0000000000000E+00
(PID.TID 0000.0001) %MON forcing_qsw_min              =   0.0000000000000E+00
(PID.TID 0000.0001) %MON forcing_qsw_mean             =   0.0000000000000E+00
(PID.TID 0000.0001) %MON forcing_qsw_sd               =   0.0000000000000E+00
(PID.TID 0000.0001) %MON forcing_qsw_del2             =   0.0000000000000E+00
(PID.TID 0000.0001) %MON forcing_empmr_max            =   6.9416777629764E-05
(PID.TID 0000.0001) %MON forcing_empmr_min            =  -7.4816678363732E-05
(PID.TID 0000.0001) %MON forcing_empmr_mean           =   8.9104925641196E-07
(PID.TID 0000.0001) %MON forcing_empmr_sd             =   2.7637051706411E-05
(PID.TID 0000.0001) %MON forcing_empmr_del2           =   3.5415798098348E-07
(PID.TID 0000.0001) %MON forcing_fu_max               =   3.0993293523788E-01
(PID.TID 0000.0001) %MON forcing_fu_min               =  -2.3727086881797E-01
(PID.TID 0000.0001) %MON forcing_fu_mean              =   1.8007539974469E-02
(PID.TID 0000.0001) %MON forcing_fu_sd                =   9.3162159555480E-02
(PID.TID 0000.0001) %MON forcing_fu_del2              =   7.2147166739709E-04
(PID.TID 0000.0001) %MON forcing_fv_max               =   1.7883819590012E-01
(PID.TID 0000.0001) %MON forcing_fv_min               =  -1.9373511075974E-01
(PID.TID 0000.0001) %MON forcing_fv_mean              =  -7.2584383408382E-03
(PID.TID 0000.0001) %MON forcing_fv_sd                =   4.3856575417137E-02
(PID.TID 0000.0001) %MON forcing_fv_del2              =   5.1243707888960E-04
(PID.TID 0000.0001) %MON trAdv_CFL_u_max              =   4.7828960687076E-02
(PID.TID 0000.0001) %MON trAdv_CFL_v_max              =   2.7937584778114E-02
(PID.TID 0000.0001) %MON trAdv_CFL_w_max              =   3.7576066365713E-02
(PID.TID 0000.0001) %MON advcfl_uvel_max              =   4.8673424819868E-02
(PID.TID 0000.0001) %MON advcfl_vvel_max              =   2.6224949887271E-02
(PID.TID 0000.0001) %MON advcfl_wvel_max              =   4.4949478924406E-02
(PID.TID 0000.0001) %MON advcfl_W_hf_max              =   5.4581510122493E-02
(PID.TID 0000.0001) %MON pe_b_mean                    =   4.5725988863562E-04
(PID.TID 0000.0001) %MON ke_max                       =   1.7214810962658E-02
(PID.TID 0000.0001) %MON ke_mean                      =   1.2881179948148E-04
(PID.TID 0000.0001) %MON ke_vol                       =   1.3226782436723E+18
(PID.TID 0000.0001) %MON vort_r_min                   =  -4.7152366590098E-07
(PID.TID 0000.0001) %MON vort_r_max                   =   4.0329014787042E-07
(PID.TID 0000.0001) %MON vort_a_mean                  =  -2.5274807038464E-05
(PID.TID 0000.0001) %MON vort_a_sd                    =   7.3604651230378E-05
(PID.TID 0000.0001) %MON vort_p_mean                  =  -3.1845655347157E-05
(PID.TID 0000.0001) %MON vort_p_sd                    =   1.3162465170186E-04
(PID.TID 0000.0001) %MON surfExpan_theta_mean         =   3.5533004384802E-07
(PID.TID 0000.0001) %MON surfExpan_salt_mean          =  -2.4267885033910E-08
(PID.TID 0000.0001) // =======================================================
(PID.TID 0000.0001) // End MONITOR dynamic field statistics
(PID.TID 0000.0001) // =======================================================
(PID.TID 0000.0001) // =======================================================
(PID.TID 0000.0001) // Field Current uVel   at iteration         50
(PID.TID 0000.0001) // CMIN =         -1.292908313286335E-01
(PID.TID 0000.0001) // CMAX =          1.861780222832645E-01
(PID.TID 0000.0001) // CINT =          1.168403161525548E-02
(PID.TID 0000.0001) // SYMBOLS (CMIN->CMAX): -abcdefghijklmnopqrstuvwxyz+
(PID.TID 0000.0001) //                  0.0: .
(PID.TID 0000.0001) // RANGE I (Lo:Hi:Step):(     1:    90:     1)
(PID.TID 0000.0001) // RANGE J (Lo:Hi:Step):(    40:     1:    -1)
(PID.TID 0000.0001) // RANGE K (Lo:Hi:Step):(   1:   1:   1)
(PID.TID 0000.0001) // =======================================================
(PID.TID 0000.0001) K =   1
(PID.TID 0000.0001)                I=10      I=20      I=30      I=40      I=50      I=60      I=70      I=80      I=90
(PID.TID 0000.0001) |--J--|123456789|123456789|123456789|123456789|123456789|123456789|123456789|123456789|123456789|
(PID.TID 0000.0001)     40 kkkjk..kkkkkkkkkkkk...................................................................kjjk
(PID.TID 0000.0001)     39 klllkkkkkkkkkk....k......................................................kkk.........jjjjk
(PID.TID 0000.0001)     38 lmmmlkkkkkkll............................................................kkkk.......jiijkl
(PID.TID 0000.0001)     37 mmm...................................................................k....jj....jjjj..lmm
(PID.TID 0000.0001)     36 nm..........................................kkk.....................kkkkkkkiij..ijjklllmmn
(PID.TID 0000.0001)     35 ll..................................kkk...kkkkkk....jkkl............kk.....kjijiiklmmmmnml
(PID.TID 0000.0001)     34 ....................................jjj..jkkkkkk..kkklmml...................lkklmnoooonm..
(PID.TID 0000.0001)     33 .....................................jjiijkkllllllmnoooomlk..................lmoqqrrqonlk.
(PID.TID 0000.0001)     32 .....................................jjjjklmnooooopqrrrqpnm.................npqrsssrpnmml.
(PID.TID 0000.0001)     31 .....................................lmnnoppppppqqqrssrqpon...............msututsrrqonmm..
(PID.TID 0000.0001)     30 ....................................pqrsssssrrqqrrrrrqqpoom.............orstssssrqqpnmmm..
(PID.TID 0000.0001)     29 ..................................mpqrrsssssrqppoooooonnmmml............rqqonnmmnnnmllll..
(PID.TID 0000.0001)     28 ................................lmnnmmmnnmmmmlllkklllllllllll..........mmlkjjjjkkllkjjkk..
(PID.TID 0000.0001)     27 ...............k...............mnmljjjjjjjjjjjjjjjkkllklkkkkkk....kkk..llkkjkkkkkkkkkj....
(PID.TID 0000.0001)     26 ...............km............klnomlkjjjkkkjjjkjjkkkllllllkjjjjjk..klmllmlllllllmmlllkj....
(PID.TID 0000.0001)     25 ...............llk....lk....jkklnmjihhhjjjiiijijjkkkjjjjiiiiijjjk....jkkjjjkkkkkkjjiii....
(PID.TID 0000.0001)     24 .............jjiiik..kkj....ij..igdcccdeefeeefffghihgffedeefghiiiiik..igiffhhggghgfffh....
(PID.TID 0000.0001)     23 .............dedegh..ggg....hk...dba---abbabcceefghggghgfgfgggggffggi.....gegddefeffgj....
(PID.TID 0000.0001)     22 j............a--abeeccdf....j..haeedbbccccccdefghiiijjmmkkiihijihhhhii.......hgdddgijknnnk
(PID.TID 0000.0001)     21 kkj.........fecbbadeegill......khkkigffffggghhihhihgjikkkjiiijlkjjihhj.........gedgjkklllk
(PID.TID 0000.0001)     20 jkj........hijjjhfgiiklmk.........lkkihiijkkkjjihihfighhhhfghijjihhgfh..........hdfhiijjii
(PID.TID 0000.0001)     19 jlk........hhjlkkjiiijjiijj....lm......kkmnmmmmlkljhihggffdeeeedeffeef............fefghhgh
(PID.TID 0000.0001)     18 hjj........gdffcdffhgfgggijkklmll....mnmlnonnnnnlmmlkjhhggedccbbceeedei...........hffghgff
(PID.TID 0000.0001)     17 egh..........hfccfgijghijjjkmml......mnnnnmmmmnnmmmmmkjiihgfeeddeeffede..........ljhgfeeed
(PID.TID 0000.0001)     16 efg.......m..ljhhiilnljkkllllk........llmmmmmmmnnnmmmllkkjjihggghhhhhggi.........mkihgeeff
(PID.TID 0000.0001)     15 hhhi.....lk..lkkjijlmmkkllmlk..........jkkkllllmnnmmmllkkkkjiiiiijjiihhij.......lkkjjihhhh
(PID.TID 0000.0001)     14 iiii.....kjjjkkkkjjllkijkllkk..........kjjkkkklllmmmmlkkkkkjijkjiijjjjijj......kkkjjjiihhi
(PID.TID 0000.0001)     13 jjih.....jiijjjjjijlligiklkii..........lkklllllklmmmlllllllllllkjjkkkkkkk.....kllkkkjjjjjj
(PID.TID 0000.0001)     12 mmkiihekmmmlkkjjkkkkkkklmlkjjkkkkj.....mnmmmlllllmmlllllmmmnnomllmmmllkk......mnnnnnmmnnmm
(PID.TID 0000.0001)     11 qponnlmqstutssrqqqqqpopppooonnmmmlk...mnnnm..mnmmmlllllklmnnoonmnnoonmlk.....moprssrrrqqqq
(PID.TID 0000.0001)     10 tssrsuvwxyzzz++yxxxwvttttssrqqqponml..nonml..oommlllmmmlllmnooopppppooml...lloqrtuuuvvuuut
(PID.TID 0000.0001)      9 uuuuuwwwwxyxwxyxwvwwwvuttuutsssrrrpoooppom..moonnnnmmnnnnnnnooopppooonnl..lmoqssstuuvvvvwv
(PID.TID 0000.0001)      8 tttuuuttttttssrrqqpqsttssssssstttuuuuutsqpppoooppqqqppppqqppopppponnonnm..mnmoppppqrrrrsst
(PID.TID 0000.0001)      7 qqqqqpppppppqqpoonmmoppppppppqrrssttvvutsssrpopppqqrssrrqqppoppppooooooqponnnnoonmnoooooop
(PID.TID 0000.0001)      6 mnnmmmmnnnnnnnnnnnmmmmmmnnnnnooppppppqqrsssrqpppppppqrrrrqooooppppppppppqppqqqppnmmmmmmmmm
(PID.TID 0000.0001)      5 kkkllmmmmlllllllmmmmlllllllmmmmmmmmmmnnopqrqppooooooonoooooooooooooooooooonnpponmmllllllkk
(PID.TID 0000.0001)      4 jjjjkkkkkkkkkkkkkllkkkkkkkkkkkkkkkkllllllmnnnnnmmmmmllllmmnnnnnnnnmmmmmmll...kllkkkkkkkkjj
(PID.TID 0000.0001)      3 jjjjjjjjkk.............................kkkkkkllllkkkkkkkkllllllllllkkkkkk...kkkkkkkkkkkkkj
(PID.TID 0000.0001)      2 ...........................................kkkkkkkkkjjjkkkkkkkkk...kkk......kkkkkkkkkkk...
(PID.TID 0000.0001)      1 ..........................................................................................
(PID.TID 0000.0001) // =======================================================
(PID.TID 0000.0001) // END OF FIELD                                          =
(PID.TID 0000.0001) // =======================================================
(PID.TID 0000.0001) 
(PID.TID 0000.0001) // =======================================================
(PID.TID 0000.0001) // Field Current vVel   at iteration         50
(PID.TID 0000.0001) // CMIN =         -9.661973251280426E-02
(PID.TID 0000.0001) // CMAX =          1.349825771875299E-01
(PID.TID 0000.0001) // CINT =          8.577863322234598E-03
(PID.TID 0000.0001) // SYMBOLS (CMIN->CMAX): -abcdefghijklmnopqrstuvwxyz+
(PID.TID 0000.0001) //                  0.0: .
(PID.TID 0000.0001) // RANGE I (Lo:Hi:Step):(     1:    90:     1)
(PID.TID 0000.0001) // RANGE J (Lo:Hi:Step):(    40:     1:    -1)
(PID.TID 0000.0001) // RANGE K (Lo:Hi:Step):(   1:   1:   1)
(PID.TID 0000.0001) // =======================================================
(PID.TID 0000.0001) K =   1
(PID.TID 0000.0001)                I=10      I=20      I=30      I=40      I=50      I=60      I=70      I=80      I=90
(PID.TID 0000.0001) |--J--|123456789|123456789|123456789|123456789|123456789|123456789|123456789|123456789|123456789|
(PID.TID 0000.0001)     40 jknom.jkkkkkkk...kk..................................................................kjjjj
(PID.TID 0000.0001)     39 kklllkjjjjjll...........................................................kkkk........ijjkkk
(PID.TID 0000.0001)     38 kll.......................................................................kjk......jh.llkj
(PID.TID 0000.0001)     37 ln...................................................................kk...jjj...hjnmk.kkjj
(PID.TID 0000.0001)     36 mm.........................................nonm....................kkk....ihij.gfjllkjjkkj
(PID.TID 0000.0001)     35 ...................................kkll..mnoppom...jjlmm...................gffgghijjjjln..
(PID.TID 0000.0001)     34 ....................................jjk.lmmnonnm.kkkkklml...................gceefghhhgjk..
(PID.TID 0000.0001)     33 ....................................khhijkkkllkkkjjjkkkkkkl.................ldfgeefgffgik.
(PID.TID 0000.0001)     32 ....................................kigghijjjkjijjjklllkjjk................pmggihggggfgi..
(PID.TID 0000.0001)     31 ....................................mljiijjiijjjjkklnnnmkij..............nnlihiiiihhhhij..
(PID.TID 0000.0001)     30 ...................................oolkkklkijkkkkklmoonmkji............ppoomkkjjjjiijjjk..
(PID.TID 0000.0001)     29 .................................opomkjjklkjjkkjijjlmnmlkjii...........nomlkkjijjiiiijkl..
(PID.TID 0000.0001)     28 ...............................mnmmlkjiijkjjijiiijjjklkjjkkjj.........lmlkjjjiijjjiiij....
(PID.TID 0000.0001)     27 ..............kl..............ommmllkkjjjjiijjjjjkkjkkkkkllkkk...llmm.mlkkjklllllllkkl....
(PID.TID 0000.0001)     26 ..............mno...........mopqqrrrpoponmlmnmmnnnnmnoopqpponlkk....nomnnmnooppppqpqpo....
(PID.TID 0000.0001)     25 ..............nprn...nkk...mop.tvxyxwwwwvttstsssstsstvvwxxvtrpnll....qrtprrsstvvutssss....
(PID.TID 0000.0001)     24 ............mssssng.lmjj...mnk..quxyzyz+zyxwvvvvwwwwwxxxyywvtsqooooo.....qsuuwyywuttvs....
(PID.TID 0000.0001)     23 ............knqrroj.gjmn...jn...-hnqrstvvtrqqqqqqqrssssrstsqpommmnnom.......nqsutssqqp....
(PID.TID 0000.0001)     22 l...........iknnnmkjhill......je-bdefhkllkkjjjjkmnoqqrstuutroljkkklllk........ppoqrpomkjmm
(PID.TID 0000.0001)     21 kih........jlmljihjihkmoo......i.ddefgkjiiijjklnopprqruwvuttrpnnnmmllk.........kmqrrrponml
(PID.TID 0000.0001)     20 gfg.......lnstrnjhikklmnl......j......pomllmmnopqqpqrqrttsrstssrqonmmj...........trqqpponj
(PID.TID 0000.0001)     19 ffi.......lnuusnifgijkjjhhi...kkk.....onmlklkllmlkkloonnljkmmlllkjjklk...........omlmmmkjh
(PID.TID 0000.0001)     18 ghj.......l.sqmgdaabcfgfegjllmk.....jkllkkjiiiiiiiijlmljhgghhghgffhjlkm..........jihhjighh
(PID.TID 0000.0001)     17 fhj.......n.lokgefffedggffhjll.......lllkkkjjiiijkklmljhhfffffggeefgihh.........kkjhhigdef
(PID.TID 0000.0001)     16 fgi......lm.kmkikkimkiikihhgj.........kkkkkjkkklmmmmmmlkjijjjiihgggghiij........klkiiigfff
(PID.TID 0000.0001)     15 iijj....lpn.hijjjhhmmjjklkjgi.........kjkkkkkllllllllmmkklmllmlkjijjjjklk......jklljjkkkkj
(PID.TID 0000.0001)     14 lmnm....lklighijjghjjjikllkkk.........iijjjiijjkjjjiijjiiiiijmkkkjkkjjllk.....iijkljijjkll
(PID.TID 0000.0001)     13 kmmn....efihfgijjihiiihikkklk.........ighiiihhiiiiihghhhgggghjiikkjkkkmm.....jiiiijihhhijj
(PID.TID 0000.0001)     12 lllkkfbdbdhhffiijjjjiiijlllkkjjkll....ihiik.ihiijihhiiijihhiihhjmmkkklnm.....hiiiiihhhhijk
(PID.TID 0000.0001)     11 nnmkjihhffikiilmnnlmllllmnnnmlllkll..jjkkjk.iijkkkjjjkjlmllmljilpqommmnm....fjmlkklkkkkkln
(PID.TID 0000.0001)     10 rqqqponlkklnmnprsspnopppqqqqpoonlloo.klmlk..ljkklmllllkmopqponmpstsqponl..mmjnqqpooonopppq
(PID.TID 0000.0001)      9 sstuvusqqpprrssrtwroqsttsssssrqqportqooonl.pommnooooppoqrstsqppruutsrplj.mpqpquvussrqrssss
(PID.TID 0000.0001)      8 rsssssrrrrrsssrppvvrrsttssrrqrrrrrtusqonmnqsqppqrrqqqqrttttsrqqrstssrqli.rqsssuvusrqqrrqqq
(PID.TID 0000.0001)      7 poonnoopppopqppoorusqppqppooopqqqprrponllnqrrqqrssrrrppqqpqqppppqrrqqqpoqrqrtttsrqonopqpop
(PID.TID 0000.0001)      6 nmlkllmnonmmnnmmnopponnnmllmmnnnnmnnmmlkkmnoppqqqpppomlllmnooonnopppppppqrqqppponnnmmnoonn
(PID.TID 0000.0001)      5 lkkkkkkllkkkkkkkllllllkkjkjkkkkjjjkkklkkklmmmmooonnmmlkkkklnnmmmnnnnnnnnmn..llmmllllllllll
(PID.TID 0000.0001)      4 jiiijiiiii............................kjjkkkkklmmlllkkkkllllllkkklllllkjj...kllkkkkkkkkkkk
(PID.TID 0000.0001)      3 ..........................................kkkkkkkkkkjjkllllkkjjj..kkjk.....kklkkjkkkkkk...
(PID.TID 0000.0001)      2 ..........................................................................................
(PID.TID 0000.0001)      1 ..........................................................................................
(PID.TID 0000.0001) // =======================================================
(PID.TID 0000.0001) // END OF FIELD                                          =
(PID.TID 0000.0001) // =======================================================
(PID.TID 0000.0001) 
(PID.TID 0000.0001) // =======================================================
(PID.TID 0000.0001) // Field Current theta  at iteration         50
(PID.TID 0000.0001) // CMIN =         -1.983567954403059E+00
(PID.TID 0000.0001) // CMAX =          3.036428548913940E+01
(PID.TID 0000.0001) // CINT =          1.198068646057128E+00
(PID.TID 0000.0001) // SYMBOLS (CMIN->CMAX): -abcdefghijklmnopqrstuvwxyz+
(PID.TID 0000.0001) //                  0.0: .
(PID.TID 0000.0001) // RANGE I (Lo:Hi:Step):(     1:    90:     1)
(PID.TID 0000.0001) // RANGE J (Lo:Hi:Step):(    40:     1:    -1)
(PID.TID 0000.0001) // RANGE K (Lo:Hi:Step):(   1:   1:   1)
(PID.TID 0000.0001) // =======================================================
(PID.TID 0000.0001) K =   1
(PID.TID 0000.0001)                I=10      I=20      I=30      I=40      I=50      I=60      I=70      I=80      I=90
(PID.TID 0000.0001) |--J--|123456789|123456789|123456789|123456789|123456789|123456789|123456789|123456789|123456789|
(PID.TID 0000.0001)     40 -bbccbaa------abdddbbbbbbbbbbbbbbbbbbbbbbbbbbbbbbbbbbbbbbbbbbbbbbbbbbbbbbbbbbbbbbbbbbaaa--
(PID.TID 0000.0001)     39 bbcdcccbba----bbbddbbbbbbbbbbbbbbbbbbbbbbbbbbbbbbbbbbbbbbbbbbbbbbbbbbbbb----bbbbbbbbbaaaab
(PID.TID 0000.0001)     38 eeefeecccbbaabbbbbbbbbbbbbbbbbbbbbbbbbbbbbbbbbbbbbbbbbbbbbbbbbbbbbbbbbbb-----bbbbbbb---bcd
(PID.TID 0000.0001)     37 fggbbbbbbbbbbbbbbbbbbbbbbbbbbbbbbbbbbbbbbbbbbbbbbbbbbbbbbbbbbbbbbbbbbbbbbbaabbbbcbcdebcdde
(PID.TID 0000.0001)     36 ggbbbbbbbbbbbbbbbbbbbbbbbbbbbbbbbbbbbbbbbbbca--bbbbbbbbbbbbbbbbbbbbccccbababbdbcefgghhhhgg
(PID.TID 0000.0001)     35 fgbbbbbbbbbbbbbbbbbbbbbbbbbbbbbbbbb----bbbbcccbabbbddeefbbbbbbbbbbbbbbbbbbbcdedeefghiiiihg
(PID.TID 0000.0001)     34 bbbbbbbbbbbbbbbbbbbbbbbbbbbbbbbbbbb----bbccccdddbcddeefffbbbbbbbbbbbbbbbbbbbabdefghiijjibb
(PID.TID 0000.0001)     33 bbbbbbbbbbbbbbbbbbbbbbbbbbbbbbbbbbbb--abccddddddeeeefffggghbbbbbbbbbbbbbbbbbaacghijkkkkkjb
(PID.TID 0000.0001)     32 bbbbbbbbbbbbbbbbbbbbbbbbbbbbbbbbbbbb-abccddeeeeffgggghhhhhibbbbbbbbbbbbbbbbcbabjklllllkkkb
(PID.TID 0000.0001)     31 bbbbbbbbbbbbbbbbbbbbbbbbbbbbbbbbbbbbdefggghhiiiiiiiijjkkkjkbbbbbbbbbbbbbbgjljikmnnnmmmlmbb
(PID.TID 0000.0001)     30 bbbbbbbbbbbbbbbbbbbbbbbbbbbbbbbbbbblkkkkkkkllllllllllmmmmllbbbbbbbbbbbbmnnppppppppooonnnbb
(PID.TID 0000.0001)     29 bbbbbbbbbbbbbbbbbbbbbbbbbbbbbbbbbooooonnnnnnnnnnnnnnooooonmmbbbbbbbbbbbpqqqqqqqqqqpppooobb
(PID.TID 0000.0001)     28 bbbbbbbbbbbbbbbbbbbbbbbbbbbbbbbnpppqpppppqqppqqpqqqqqqqqpponnbbbbbbbbbrrrrrrrrqqrrqqppppbb
(PID.TID 0000.0001)     27 bbbbbbbbbbbbbbuubbbbbbbbbbbbbbqrrrrssssrssssssssssssssrrrqppppbbbsrstbtttttttttsssrrrqbbbb
(PID.TID 0000.0001)     26 bbbbbbbbbbbbbbutubbbbbbbbbbbttttttuuuuuuuuuuuuuuuuuuttsssrrqrrsubttuvvvvvuuuuuuuttssrqbbbb
(PID.TID 0000.0001)     25 bbbbbbbbbbbbbbuuvwbbbwvwbbbuuvvwvvwwwwwwwwvvvvvvvvvuuutttsssttuvwbbbwwwvvvvvuvuuttsrqpbbbb
(PID.TID 0000.0001)     24 bbbbbbbbbbbbvvvvwxybwwwxbbbwwvbxwwxxxxwwwwwwwwwvwvvvvvvvuuuvvvwwwvvvbwvvvvvvvvvuuuttsrbbbb
(PID.TID 0000.0001)     23 bbbbbbbbbbbbwwwxxyybwwxxbbbxwwbbxxxxxxxxxxxwxxwwwwwwwxwwwwwwwwwwwwwwvbbbbwwwwwwvvvvvvubbbb
(PID.TID 0000.0001)     22 wbbbbbbbbbbbxwxxxyyyxxyybbbxxbyyyyyyyyyyyyyyxxxxxxxxxxxwwwwwxwwwwwwwvwbbbbbbxxxwwwxxxyxxww
(PID.TID 0000.0001)     21 wwwbbbbbbbbxxxxxyyyyyzz++bbbbbyyzzzzzzzzzzzyyyyyyyyyyyxxwwxxxwwwwwvvvwbbbbbbbbyxxyyyyyyxxw
(PID.TID 0000.0001)     20 wwvbbbbbbbyxyyyyyzzzzzz++bbbbbbzbzzzzz++++zzzzzzzzyzyyyyxxxxxxxxwxwwvvbbbbbbbbbyyyyyyyyxyx
(PID.TID 0000.0001)     19 wvvbbbbbbbzzzzzzzzyzzzzzzzybbbzzzbbbbb++z+++zzzzzzzzyyyyxxxxxxwwwwwwvvbbbbbbbbbbbyyxxwwwwx
(PID.TID 0000.0001)     18 vutbbbbbbbzzzyxyyyyyyyyyzzzyzz+zzbbb++zz+++zzzzzzzzzzyyyyyxxxwwvvvvvvvubbbbbbbbbbyyxxwwwww
(PID.TID 0000.0001)     17 uusbbbbbbbzbyyxxxxxyyyyxyyyyyzzbbbbbzzzzzz+zzzzzzzzzzyyyyyxxxwwvuuvuutvbbbbbbbbbyyyxxwuvvu
(PID.TID 0000.0001)     16 utsbbbbbbyzbyyxxxxxxxxxwwxxxyzbbbbbbbyyyyzzzzzzzzyyyzyyyxxyxxxwwvvvuutttbbbbbbbbyyyyxwvvvu
(PID.TID 0000.0001)     15 tsrrbbbbxyybxxxxxwwwwwwwvvvwxbbbbbbbbbxxxxxyyxxyxyyxyyyyyyyyxwwwwvvuttssrbbbbbbxxyyyyxxwvu
(PID.TID 0000.0001)     14 utrqbbbbxyxwwxwwwxwvvuuuutuuubbbbbbbbbwwwwwwwwwwwxxxxxxwxxxxxwwwvvvvtssssbbbbbwwxxxxxxwwwu
(PID.TID 0000.0001)     13 uutrbbbbwxwwwwuuuvvvvuuttttttbbbbbbbbbvvvvvvvvvvvvuuvvvvvwwxxwwvvuuuutssqbbbbvwwwwwwwwwvvu
(PID.TID 0000.0001)     12 tststsstuvuttutssssstutrrsssrqqrrqbbbbuuuutttttssssstsssstuvuttttsttssrrbbbbbuvvvutuuuuttt
(PID.TID 0000.0001)     11 qpqqrrssssrrrsrqqqppprqpqqqppqqqqqqbbtttsssbrrrqrrrrrrrrrrssqqrrrrrssrqpbbbbprttssrrsrrqqq
(PID.TID 0000.0001)     10 mmmmnooppppppponnnnnnnnmmnmmmnoooppobqrrrrqbpqqqqqqpppppppppoopppooppppobboopqpppoooopponn
(PID.TID 0000.0001)      9 jjiijjjkkjkkkkkjjijjjjjiijjjjjkllnnmmnooopbnnoooooooooooonnmmmnnmmlmmnnmbmnnnnnmmllkkllkjj
(PID.TID 0000.0001)      8 ggggggghgghhiihhggghhihgghhhhijjjjkkkklmmmmllllllllmmmllllkkkkkllkkkkklkblllkkkjiiihhhggff
(PID.TID 0000.0001)      7 eeeeeeffggfffggfffffffeeffggggghhhhhiiijkkkjjkkkkjjiiiiiiiiiiiiiiiiijjjjijjjiihhgfffffeeee
(PID.TID 0000.0001)      6 ddddeeeeeeeeeefeeeeeeeeffeeedeffffffggghhiiihhiiihgfffgfgggggffghhhhhhhhhhhhggffeedddddddd
(PID.TID 0000.0001)      5 dddeeeddddeeeeeeeeeeeeeedddeeeeeeeeeeeefffggfffffeedddeeeeeeeeeffffffffffffeeeedddddcccccd
(PID.TID 0000.0001)      4 ddddddccccccccccccdcccccbbbcccccccccccdddddddddcdddddddddddcdddddddddddddcbbbbbccccdcccccd
(PID.TID 0000.0001)      3 ccccbbbaaabbbbbbbbbbbbbbbbbbbbbbbbbbbbbbbbbcccccccccccccbbbbbbbbbbbbbbbbbbbbbaaabbcccccbbb
(PID.TID 0000.0001)      2 bbbbbbbbbbbbbbbbbbbbbbbbbbbbbbbbbbbbbbbbbbbcccccbbbbbaaaaaaaaababbaaaabbbbbaaaaabbbbbbbbbb
(PID.TID 0000.0001)      1 bbbbbbbbbbbbbbbbbbbbbbbbbbbbbbbbbbbbbbbbbbbbbbbbbbbbbbbbbbbbbbbbbbbbbbbbbbbbbbbbbbbbbbbbbb
(PID.TID 0000.0001) // =======================================================
(PID.TID 0000.0001) // END OF FIELD                                          =
(PID.TID 0000.0001) // =======================================================
(PID.TID 0000.0001) 
(PID.TID 0000.0001) // =======================================================
(PID.TID 0000.0001) // Field Current etaN   at iteration         50
(PID.TID 0000.0001) // CMIN =         -1.834510642141853E+00
(PID.TID 0000.0001) // CMAX =          8.384459768290247E-01
(PID.TID 0000.0001) // CINT =          9.899839329521767E-02
(PID.TID 0000.0001) // SYMBOLS (CMIN->CMAX): -abcdefghijklmnopqrstuvwxyz+
(PID.TID 0000.0001) //                  0.0: .
(PID.TID 0000.0001) // RANGE I (Lo:Hi:Step):(    -1:    92:     1)
(PID.TID 0000.0001) // RANGE J (Lo:Hi:Step):(    42:    -1:    -1)
(PID.TID 0000.0001) // RANGE K (Lo:Hi:Step):(   1:   1:   1)
(PID.TID 0000.0001) // =======================================================
(PID.TID 0000.0001) K =   1
(PID.TID 0000.0001)                I=8       I=18      I=28      I=38      I=48      I=58      I=68      I=78      I=88
(PID.TID 0000.0001) |--J--|101234567|901234567|901234567|901234567|901234567|901234567|901234567|901234567|901234567|9012
(PID.TID 0000.0001)     42 ............................................bbbbbbccccdddddccccccc..dddd.....--aaaabbbbaa.....
(PID.TID 0000.0001)     41 ..............................................................................................
(PID.TID 0000.0001)     40 lllllmm.nnnnnnnnnnnnn..................................................................mmmllll
(PID.TID 0000.0001)     39 llllllmmmmmmmmnn...oo.....................................................jjjj........mmmlllll
(PID.TID 0000.0001)     38 llmmmnnnnnnnnnn...........................................................kkkkj......nmlllllmm
(PID.TID 0000.0001)     37 lmmmn..................................................................mm...kkj...llkll.kllmmm
(PID.TID 0000.0001)     36 mmmo.........................................ppqp....................mmnnmlkkkkj.mjjjklmlmmmmo
(PID.TID 0000.0001)     35 oooo.................................oooo..pppppqp...srrrr...........nnn....kiiiiiiijkklmmoooo
(PID.TID 0000.0001)     34 .....................................pooo.pppppppq.qqppqqrs..................lkjiiiijklmmp....
(PID.TID 0000.0001)     33 m.....................................ppoppppppppqqqqqqqqrrst.................mkjkkklmnnnmm...
(PID.TID 0000.0001)     32 n.....................................pppooppppqqqqrqqrrrssss................glllmnnnooonnn...
(PID.TID 0000.0001)     31 ......................................pppppqqqrrrrrrrrssstttt..............mnooonooooooonn....
(PID.TID 0000.0001)     30 .....................................rrssrsssssssttttttttuutt............loopqrrrqqqpppooo....
(PID.TID 0000.0001)     29 ...................................tuuvvvvuvvuuuuuuuuuuuuuuuts...........prsssssrrrrqqpppp....
(PID.TID 0000.0001)     28 .................................vwwxxyxxxwxwwwwwvvvvvvvvvvuutt.........ssssssssrrrrqqpppp....
(PID.TID 0000.0001)     27 ................tt..............yyyyyzyyyyxyxxxxwwwwwwwvvvvuuutt...uttt.tttttsssrrrqqppp......
(PID.TID 0000.0001)     26 ................ttt...........zzzzzzzzzzzzzzyyyxxwwxxwwwvvvuuutttu.uttuvuuutttssrrrqqqpp......
(PID.TID 0000.0001)     25 ................utuv...wvv...+zyz+zzzyyyyyyyyyyxxwwwwwwwvvvuuuuuuuu...uvvvuutttsrrrrqqpp......
(PID.TID 0000.0001)     24 ..............utuuuvv.wwwv...+zy.+zyyxxxxxyyxxxxwwwwwvvvvvuuuuuuuvuuuu.vuuuttttsrrrrqqqp......
(PID.TID 0000.0001)     23 ..............uuuuvvv.wvvv...+zz..zyxxxxxxxxxxxxwwxwwwwvvvvuuuuuuuuuuuu....ttttssrrrrrrq......
(PID.TID 0000.0001)     22 rrr...........uuuuuuvvwvww...+z.yyzyyyyyyyyxxxxxxxxxxxwwwvvvvuuuuuuuuuuu......ttsssrrrsssrrrr.
(PID.TID 0000.0001)     21 rrrrr........uuuuuuuvvwwwxx.....xyzyyyyyyzyyyyyyxxxxxxxxwwwvvvvuuuuuuuuv........tsssssssrrrrrr
(PID.TID 0000.0001)     20 rrrrr.......wvvvvvvvwwwxxxx......y.xxxxyyyyyyyyyxxxxxxwwwwwvvvvvuuuuutuu.........sstsssrrrrrrr
(PID.TID 0000.0001)     19 rrrrq.......wwwwwwwwwwwwwwwww...xyy.....yyyyyyyyxxxxxxwwwwwvvvvvuuuuttuu...........tsssrrrrrrr
(PID.TID 0000.0001)     18 qqqqq.......wxxwvvvvvvvwwwwwwwxxxxy...zzyyyyyxyxxxyxxxxwwwwwvvvuuuutttttt..........tsssrrrqqqq
(PID.TID 0000.0001)     17 qqqqp.......x.yxwwvvwwwwwwwwwwwxx.....zzyyyyyxxxxxxxxxxxwwwwwvvvuuuuuuttt.........uttssrqqqqqq
(PID.TID 0000.0001)     16 rqqqp......yx.zyxxwxxxxwwwwvvwwx.......yyyyyyyyyyyyyyyyxxxxxwwwvvvuuuuttss........utttssrrrqqq
(PID.TID 0000.0001)     15 srrqqp....zyw.yyyxxxxwwwwwvvuuv.........xxxxxxyyxyyxyyyxxxxxxxxwwvvvuuutssr......ttuttuttssrrq
(PID.TID 0000.0001)     14 tssrqp....yyxwxxxwwwxwvuvvvuttt.........xxwwwxxxwwwxxxxxxxxxxxxxwvvvvuuutss.....ttttttuutttssr
(PID.TID 0000.0001)     13 tttsrq....xyxxxxwvvvwvuuvvuutts.........vwwwvvvvvvvvvvvvwwwwxxxxwwvvvvuutss....sttttttuuuuttts
(PID.TID 0000.0001)     12 ttssrrqptuwxxwwwwvvuuuuuuuutttssssss....uvvvuuuuuuuttuuuuuuvvvvvvvvuuuutts.....sssssssttttttss
(PID.TID 0000.0001)     11 ssrrrrrstuuwwwvwvuuuutttutttsssssssss..ttuttu.sttttsttttuuuuuuuuvvvuttttss....prrrrrqqrrssssrr
(PID.TID 0000.0001)     10 qppppppppqrrsrrssssrqrrrrrrrrqqqrqrrrr.sttttt.rsssssstttuuttttttuuutssssss..omoqpooooooppqqppp
(PID.TID 0000.0001)      9 mmmmmmmlllmmmmmmmmmllmnonnnooooopqqrsrqrrsss.rqqrssssssstuuutsssttsrrqqqqq.oonnonmlkkkklllmmmm
(PID.TID 0000.0001)      8 hhhiiihhghhhhiiiiikihijjkjjkkkllmmnoppppqqrstqppqqqqrrssssrsrqqrrsrqqqppqt.nmlllkihgggghhhhhhi
(PID.TID 0000.0001)      7 eeeeddeeeeefffffgghigfffffggghhiiijjjjjjkmnoonnnnnmmmmnnooooonoooppooooonoommmkjigfedeeeedeeee
(PID.TID 0000.0001)      6 bbbabbccddddddddeefffeddeddeeffffffffeefghjkllkjjjjiihhhijkkllllllllllllkkkjiihgedddccccccbbba
(PID.TID 0000.0001)      5 aaaaabbccccbcccccdddddcccccccdddcccddddddeefffgggfeeeeddefghiihhhiihhhhhggfedccbbbbbbbbbbaaaaa
(PID.TID 0000.0001)      4 aaaaabbbbbbccccccccccccccccccccccccccccccccccccddcccbcccddeeeeeeeffeeeeeddde..aaaaaaaaaaaaaaaa
(PID.TID 0000.0001)      3 bbbbbccbbccc............................bbbbbbbcccbbbccccdddccccccddddddded..bbaaaaaaaaabbbbbb
(PID.TID 0000.0001)      2 ............................................bbbbbbccccdddddccccccc..dddd.....--aaaabbbbaa.....
(PID.TID 0000.0001)      1 ..............................................................................................
(PID.TID 0000.0001)      0 lllllmm.nnnnnnnnnnnnn..................................................................mmmllll
(PID.TID 0000.0001)     -1 llllllmmmmmmmmnn...oo.....................................................jjjj........mmmlllll
(PID.TID 0000.0001) // =======================================================
(PID.TID 0000.0001) // END OF FIELD                                          =
(PID.TID 0000.0001) // =======================================================
(PID.TID 0000.0001) 
(PID.TID 0000.0001)  MDS_WRITE_FIELD: it,rec,kS,kL,kH=      50     1  15   1  15 file=U.0000000050
(PID.TID 0000.0001)  MDS_WRITE_FIELD: it,rec,kS,kL,kH=      50     1  15   1  15 file=V.0000000050
(PID.TID 0000.0001)  MDS_WRITE_FIELD: it,rec,kS,kL,kH=      50     1  15   1  15 file=T.0000000050
(PID.TID 0000.0001)  MDS_WRITE_FIELD: it,rec,kS,kL,kH=      50     1  15   1  15 file=S.0000000050
(PID.TID 0000.0001)  MDS_WRITE_FIELD: it,rec,kS,kL,kH=      50     1   1   1   1 file=Eta.0000000050
(PID.TID 0000.0001)  MDS_WRITE_FIELD: it,rec,kS,kL,kH=      50     1  15   1  15 file=W.0000000050
(PID.TID 0000.0001)  MDS_WRITE_FIELD: it,rec,kS,kL,kH=      50     1  15   1  15 file=PH.0000000050
(PID.TID 0000.0001)  MDS_WRITE_FIELD: it,rec,kS,kL,kH=      50     1   1   1   1 file=PHL.0000000050
(PID.TID 0000.0001)  MDS_WRITE_FIELD: it,rec,kS,kL,kH=      50     1   1   1   1 file=ETAtave.0000000050
(PID.TID 0000.0001)  MDS_WRITE_FIELD: it,rec,kS,kL,kH=      50     1  15   1  15 file=Ttave.0000000050
(PID.TID 0000.0001)  MDS_WRITE_FIELD: it,rec,kS,kL,kH=      50     1  15   1  15 file=Stave.0000000050
(PID.TID 0000.0001)  MDS_WRITE_FIELD: it,rec,kS,kL,kH=      50     1  15   1  15 file=uVeltave.0000000050
(PID.TID 0000.0001)  MDS_WRITE_FIELD: it,rec,kS,kL,kH=      50     1  15   1  15 file=vVeltave.0000000050
(PID.TID 0000.0001)  MDS_WRITE_FIELD: it,rec,kS,kL,kH=      50     1  15   1  15 file=wVeltave.0000000050
(PID.TID 0000.0001)  MDS_WRITE_FIELD: it,rec,kS,kL,kH=      50     1   1   1   1 file=Eta2tave.0000000050
(PID.TID 0000.0001)  MDS_WRITE_FIELD: it,rec,kS,kL,kH=      50     1  15   1  15 file=UTtave.0000000050
(PID.TID 0000.0001)  MDS_WRITE_FIELD: it,rec,kS,kL,kH=      50     1  15   1  15 file=VTtave.0000000050
(PID.TID 0000.0001)  MDS_WRITE_FIELD: it,rec,kS,kL,kH=      50     1  15   1  15 file=WTtave.0000000050
(PID.TID 0000.0001)  MDS_WRITE_FIELD: it,rec,kS,kL,kH=      50     1  15   1  15 file=UStave.0000000050
(PID.TID 0000.0001)  MDS_WRITE_FIELD: it,rec,kS,kL,kH=      50     1  15   1  15 file=VStave.0000000050
(PID.TID 0000.0001)  MDS_WRITE_FIELD: it,rec,kS,kL,kH=      50     1  15   1  15 file=WStave.0000000050
(PID.TID 0000.0001)  MDS_WRITE_FIELD: it,rec,kS,kL,kH=      50     1  15   1  15 file=TTtave.0000000050
(PID.TID 0000.0001)  MDS_WRITE_FIELD: it,rec,kS,kL,kH=      50     1  15   1  15 file=UUtave.0000000050
(PID.TID 0000.0001)  MDS_WRITE_FIELD: it,rec,kS,kL,kH=      50     1  15   1  15 file=VVtave.0000000050
(PID.TID 0000.0001)  MDS_WRITE_FIELD: it,rec,kS,kL,kH=      50     1  15   1  15 file=UVtave.0000000050
(PID.TID 0000.0001)  MDS_WRITE_FIELD: it,rec,kS,kL,kH=      50     1  15   1  15 file=Tdiftave.0000000050
(PID.TID 0000.0001)  MDS_WRITE_FIELD: it,rec,kS,kL,kH=      50     1  15   1  15 file=PhHytave.0000000050
(PID.TID 0000.0001)  MDS_WRITE_FIELD: it,rec,kS,kL,kH=      50     1   1   1   1 file=PHLtave.0000000050
(PID.TID 0000.0001)  MDS_WRITE_FIELD: it,rec,kS,kL,kH=      50     1   1   1   1 file=uFluxtave.0000000050
(PID.TID 0000.0001)  MDS_WRITE_FIELD: it,rec,kS,kL,kH=      50     1   1   1   1 file=vFluxtave.0000000050
(PID.TID 0000.0001)  MDS_WRITE_FIELD: it,rec,kS,kL,kH=      50     1   1   1   1 file=tFluxtave.0000000050
(PID.TID 0000.0001)  MDS_WRITE_FIELD: it,rec,kS,kL,kH=      50     1   1   1   1 file=sFluxtave.0000000050
(PID.TID 0000.0001)  MDS_WRITE_FIELD: it,rec,kS,kL,kH=      50     1   1   1   1 file=PHL2tave.0000000050
(PID.TID 0000.0001)  MDS_WRITE_FIELD: it,rec,kS,kL,kH=      50     1  15   1  15 file=Convtave.0000000050
(PID.TID 0000.0001) // Time-average data written, t-step        50
(PID.TID 0000.0001) 
(PID.TID 0000.0001)  MDS_WRITE_FIELD: it,rec,kS,kL,kH=      50     1  15   1  15 file=GM_Kwx-T.0000000050
(PID.TID 0000.0001)  MDS_WRITE_FIELD: it,rec,kS,kL,kH=      50     1  15   1  15 file=GM_Kwy-T.0000000050
(PID.TID 0000.0001)  MDS_WRITE_FIELD: it,rec,kS,kL,kH=      50     1  15   1  15 file=GM_Kwz-T.0000000050
(PID.TID 0000.0001)  MDS_WRITE_FIELD: it,rec,kS,kL,kH=      50     1  15   1  15 file=pickup_cd.0000000050
(PID.TID 0000.0001)  MDS_WRITE_FIELD: it,rec,kS,kL,kH=      50     2  15   1  15 file=pickup_cd.0000000050
(PID.TID 0000.0001)  MDS_WRITE_FIELD: it,rec,kS,kL,kH=      50     3  15   1  15 file=pickup_cd.0000000050
(PID.TID 0000.0001)  MDS_WRITE_FIELD: it,rec,kS,kL,kH=      50     4  15   1  15 file=pickup_cd.0000000050
(PID.TID 0000.0001)  MDS_WRITE_FIELD: it,rec,kS,kL,kH=      50    61   1   1   1 file=pickup_cd.0000000050
(PID.TID 0000.0001)  MDS_WRITE_FIELD: it,rec,kS,kL,kH=      50    -1  15   1  15 file=pickup.0000000050
(PID.TID 0000.0001)  MDS_WRITE_FIELD: it,rec,kS,kL,kH=      50    -2  15   1  15 file=pickup.0000000050
(PID.TID 0000.0001)  MDS_WRITE_FIELD: it,rec,kS,kL,kH=      50    -3  15   1  15 file=pickup.0000000050
(PID.TID 0000.0001)  MDS_WRITE_FIELD: it,rec,kS,kL,kH=      50    -4  15   1  15 file=pickup.0000000050
(PID.TID 0000.0001)  MDS_WRITE_FIELD: it,rec,kS,kL,kH=      50    -5  15   1  15 file=pickup.0000000050
(PID.TID 0000.0001)  MDS_WRITE_FIELD: it,rec,kS,kL,kH=      50    -6  15   1  15 file=pickup.0000000050
(PID.TID 0000.0001)  MDS_WRITE_FIELD: it,rec,kS,kL,kH=      50    -7  15   1  15 file=pickup.0000000050
(PID.TID 0000.0001)  MDS_WRITE_FIELD: it,rec,kS,kL,kH=      50    -8  15   1  15 file=pickup.0000000050
(PID.TID 0000.0001)  MDS_WRITE_FIELD: it,rec,kS,kL,kH=      50  -121   1   1   1 file=pickup.0000000050
(PID.TID 0000.0001)  MDS_WRITE_FIELD: it,rec,kS,kL,kH=      50  -122   1   1   1 file=pickup.0000000050
(PID.TID 0000.0001)  MDS_WRITE_FIELD: it,rec,kS,kL,kH=      50  -123   1   1   1 file=pickup.0000000050
(PID.TID 0000.0001) %CHECKPOINT        50 0000000050
(PID.TID 0000.0001)  MDS_WRITE_FIELD: it,rec,kS,kL,kH=      50     1   1   1   1 file=ETAN_forecast.0000000050
(PID.TID 0000.0001)  MDS_WRITE_FIELD: it,rec,kS,kL,kH=      50     1  15   1  15 file=THETA_forecast.0000000050
(PID.TID 0000.0001)  MDS_WRITE_FIELD: it,rec,kS,kL,kH=      50     1  15   1  15 file=SALT_forecast.0000000050
(PID.TID 0000.0001)  MDS_WRITE_FIELD: it,rec,kS,kL,kH=      50     1  15   1  15 file=UVEL_forecast.0000000050
(PID.TID 0000.0001)  MDS_WRITE_FIELD: it,rec,kS,kL,kH=      50     1  15   1  15 file=VVEL_forecast.0000000050
(PID.TID 0000.0001)  MDS_WRITE_FIELD: it,rec,kS,kL,kH=      50     1   1   1   1 file=ETAN_analysis.0000000050
(PID.TID 0000.0001)  MDS_WRITE_FIELD: it,rec,kS,kL,kH=      50     1  15   1  15 file=THETA_analysis.0000000050
(PID.TID 0000.0001)  MDS_WRITE_FIELD: it,rec,kS,kL,kH=      50     1  15   1  15 file=SALT_analysis.0000000050
(PID.TID 0000.0001)  MDS_WRITE_FIELD: it,rec,kS,kL,kH=      50     1  15   1  15 file=UVEL_analysis.0000000050
(PID.TID 0000.0001)  MDS_WRITE_FIELD: it,rec,kS,kL,kH=      50     1  15   1  15 file=VVEL_analysis.0000000050
 EXTERNAL_FIELDS_LOAD,        50 : iP,iLd,i0,i1=    2    3    2    3 ; Wght=  0.8333333333  0.1666666667
 EXTERNAL_FIELDS_LOAD: (fu0,1),fu,fv= -1.4435E-02 -2.7199E-02 -1.6562E-02 -1.4793E-02
 EXTERNAL_FIELDS_LOAD: SST,SSS,Q,E-P= -4.7386E-01  3.4447E+01  2.3630E+02  8.4945E-06
DEBUG_STATS_RL:          Uvel (THERMODYNAMICS)  min= -1.29290831328634E-01
DEBUG_STATS_RL:          Uvel (THERMODYNAMICS)  max=  1.86178022283264E-01
DEBUG_STATS_RL:          Uvel (THERMODYNAMICS) mean=  5.61477965979242E-03
DEBUG_STATS_RL:          Uvel (THERMODYNAMICS) S.D.=  2.38691630999003E-02
DEBUG_STATS_RL:          Vvel (THERMODYNAMICS)  min= -9.74594931803364E-02
DEBUG_STATS_RL:          Vvel (THERMODYNAMICS)  max=  1.34982577187530E-01
DEBUG_STATS_RL:          Vvel (THERMODYNAMICS) mean=  1.54836365360882E-03
DEBUG_STATS_RL:          Vvel (THERMODYNAMICS) S.D.=  1.39492273973019E-02
DEBUG_STATS_RL:          Wvel (THERMODYNAMICS)  min= -7.93685268076123E-05
DEBUG_STATS_RL:          Wvel (THERMODYNAMICS)  max=  1.46012641341845E-04
DEBUG_STATS_RL:          Wvel (THERMODYNAMICS) mean=  3.89944944772080E-08
DEBUG_STATS_RL:          Wvel (THERMODYNAMICS) S.D.=  1.06993913879024E-05
DEBUG_STATS_RL:         Theta (THERMODYNAMICS)  min= -1.98191980136985E+00
DEBUG_STATS_RL:         Theta (THERMODYNAMICS)  max=  3.03757807256765E+01
DEBUG_STATS_RL:         Theta (THERMODYNAMICS) mean=  3.21855784359876E+00
DEBUG_STATS_RL:         Theta (THERMODYNAMICS) S.D.=  5.87232988750018E+00
DEBUG_STATS_RL:          Salt (THERMODYNAMICS)  min= -2.25514051876985E-17
DEBUG_STATS_RL:          Salt (THERMODYNAMICS)  max=  3.74600703691375E+01
DEBUG_STATS_RL:          Salt (THERMODYNAMICS) mean=  1.88449391651610E+01
DEBUG_STATS_RL:          Salt (THERMODYNAMICS) S.D.=  1.73004564219362E+01
DEBUG_STATS_RL:         GtNm1 (THERMODYNAMICS)  min= -4.89274030588338E-06
DEBUG_STATS_RL:         GtNm1 (THERMODYNAMICS)  max=  2.82243910526807E-06
DEBUG_STATS_RL:         GtNm1 (THERMODYNAMICS) mean=  4.51371942421883E-09
DEBUG_STATS_RL:         GtNm1 (THERMODYNAMICS) S.D.=  1.87597268630888E-07
DEBUG_STATS_RL:         GsNm1 (THERMODYNAMICS)  min= -5.20790826200987E-07
DEBUG_STATS_RL:         GsNm1 (THERMODYNAMICS)  max=  3.32758885216792E-07
DEBUG_STATS_RL:         GsNm1 (THERMODYNAMICS) mean=  5.65322422640322E-11
DEBUG_STATS_RL:         GsNm1 (THERMODYNAMICS) S.D.=  1.84663758873342E-08
DEBUG_STATS_RL:                EtaN (DYNAMICS)  min= -1.83451064214185E+00
DEBUG_STATS_RL:                EtaN (DYNAMICS)  max=  8.38445976829025E-01
DEBUG_STATS_RL:                EtaN (DYNAMICS) mean= -1.77888007063303E-01
DEBUG_STATS_RL:                EtaN (DYNAMICS) S.D.=  6.90800598687978E-01
DEBUG_STATS_RL:                Uvel (DYNAMICS)  min= -1.29290831328634E-01
DEBUG_STATS_RL:                Uvel (DYNAMICS)  max=  1.86178022283264E-01
DEBUG_STATS_RL:                Uvel (DYNAMICS) mean=  5.61477965979242E-03
DEBUG_STATS_RL:                Uvel (DYNAMICS) S.D.=  2.38691630999003E-02
DEBUG_STATS_RL:                Vvel (DYNAMICS)  min= -9.74594931803364E-02
DEBUG_STATS_RL:                Vvel (DYNAMICS)  max=  1.34982577187530E-01
DEBUG_STATS_RL:                Vvel (DYNAMICS) mean=  1.54836365360882E-03
DEBUG_STATS_RL:                Vvel (DYNAMICS) S.D.=  1.39492273973019E-02
DEBUG_STATS_RL:                Wvel (DYNAMICS)  min= -7.93685268076123E-05
DEBUG_STATS_RL:                Wvel (DYNAMICS)  max=  1.46012641341845E-04
DEBUG_STATS_RL:                Wvel (DYNAMICS) mean=  3.89944944772080E-08
DEBUG_STATS_RL:                Wvel (DYNAMICS) S.D.=  1.06993913879024E-05
DEBUG_STATS_RL:               Theta (DYNAMICS)  min= -1.98191980136985E+00
DEBUG_STATS_RL:               Theta (DYNAMICS)  max=  3.03757807256765E+01
DEBUG_STATS_RL:               Theta (DYNAMICS) mean=  3.21855784359876E+00
DEBUG_STATS_RL:               Theta (DYNAMICS) S.D.=  5.87232988750018E+00
DEBUG_STATS_RL:                Salt (DYNAMICS)  min= -2.25514051876985E-17
DEBUG_STATS_RL:                Salt (DYNAMICS)  max=  3.74600703691375E+01
DEBUG_STATS_RL:                Salt (DYNAMICS) mean=  1.88449391651610E+01
DEBUG_STATS_RL:                Salt (DYNAMICS) S.D.=  1.73004564219362E+01
DEBUG_STATS_RL:                  Gu (DYNAMICS)  min= -1.27328631313356E-01
DEBUG_STATS_RL:                  Gu (DYNAMICS)  max=  1.92458307339677E-01
DEBUG_STATS_RL:                  Gu (DYNAMICS) mean=  5.50396440121719E-03
DEBUG_STATS_RL:                  Gu (DYNAMICS) S.D.=  2.38750008020081E-02
DEBUG_STATS_RL:                  Gv (DYNAMICS)  min= -9.56465230296527E-02
DEBUG_STATS_RL:                  Gv (DYNAMICS)  max=  1.38487099754500E-01
DEBUG_STATS_RL:                  Gv (DYNAMICS) mean=  4.09639982333931E-03
DEBUG_STATS_RL:                  Gv (DYNAMICS) S.D.=  1.54731979470979E-02
DEBUG_STATS_RL:               GuNm1 (DYNAMICS)  min= -9.43814258705028E-06
DEBUG_STATS_RL:               GuNm1 (DYNAMICS)  max=  8.89493840242842E-06
DEBUG_STATS_RL:               GuNm1 (DYNAMICS) mean= -7.72448804890057E-09
DEBUG_STATS_RL:               GuNm1 (DYNAMICS) S.D.=  1.17924262980442E-06
DEBUG_STATS_RL:               GvNm1 (DYNAMICS)  min= -9.55322860931856E-06
DEBUG_STATS_RL:               GvNm1 (DYNAMICS)  max=  1.63830180223614E-05
DEBUG_STATS_RL:               GvNm1 (DYNAMICS) mean=  7.46107956282652E-07
DEBUG_STATS_RL:               GvNm1 (DYNAMICS) S.D.=  2.60545829998663E-06
DEBUG_STATS_RL:               GtNm1 (DYNAMICS)  min= -4.89274030588338E-06
DEBUG_STATS_RL:               GtNm1 (DYNAMICS)  max=  2.82243910526807E-06
DEBUG_STATS_RL:               GtNm1 (DYNAMICS) mean=  4.51371942421883E-09
DEBUG_STATS_RL:               GtNm1 (DYNAMICS) S.D.=  1.87597268630888E-07
DEBUG_STATS_RL:               GsNm1 (DYNAMICS)  min= -5.20790826200987E-07
DEBUG_STATS_RL:               GsNm1 (DYNAMICS)  max=  3.32758885216792E-07
DEBUG_STATS_RL:               GsNm1 (DYNAMICS) mean=  5.65322422640322E-11
DEBUG_STATS_RL:               GsNm1 (DYNAMICS) S.D.=  1.84663758873342E-08
DEBUG_STATS_RL:    cg2d_b (SOLVE_FOR_PRESSURE)  min= -2.02573276544932E+04
DEBUG_STATS_RL:    cg2d_b (SOLVE_FOR_PRESSURE)  max=  2.56225067396600E+04
DEBUG_STATS_RL:    cg2d_b (SOLVE_FOR_PRESSURE) mean=  3.69002117479414E+00
DEBUG_STATS_RL:    cg2d_b (SOLVE_FOR_PRESSURE) S.D.=  3.72001143665060E+03
 cg2d: Sum(rhs),rhsMax =   3.33394351553759E-01  1.68295484501921E+00
(PID.TID 0000.0001)  cg2d: iter=     1 ; resid.=  8.25356034668748E-02
(PID.TID 0000.0001)  cg2d: iter=     2 ; resid.=  4.90663699527825E-02
(PID.TID 0000.0001)  cg2d: iter=     3 ; resid.=  5.56607558316200E-02
(PID.TID 0000.0001)  cg2d: iter=     4 ; resid.=  5.79966916930895E-02
(PID.TID 0000.0001)  cg2d: iter=     5 ; resid.=  5.18528675853241E-02
(PID.TID 0000.0001)  cg2d: iter=     6 ; resid.=  4.52322510781001E-02
(PID.TID 0000.0001)  cg2d: iter=     7 ; resid.=  3.65897706648423E-02
(PID.TID 0000.0001)  cg2d: iter=     8 ; resid.=  2.76284854931750E-02
(PID.TID 0000.0001)  cg2d: iter=     9 ; resid.=  2.13134151056324E-02
(PID.TID 0000.0001)  cg2d: iter=    10 ; resid.=  1.79652328806891E-02
(PID.TID 0000.0001)  cg2d: iter=    11 ; resid.=  1.46413043834823E-02
(PID.TID 0000.0001)  cg2d: iter=    12 ; resid.=  1.16113524252662E-02
(PID.TID 0000.0001)  cg2d: iter=    13 ; resid.=  9.02839059156820E-03
(PID.TID 0000.0001)  cg2d: iter=    14 ; resid.=  7.81091649985727E-03
(PID.TID 0000.0001)  cg2d: iter=    15 ; resid.=  7.22030585371867E-03
(PID.TID 0000.0001)  cg2d: iter=    16 ; resid.=  5.89264653041843E-03
(PID.TID 0000.0001)  cg2d: iter=    17 ; resid.=  5.16015190224078E-03
(PID.TID 0000.0001)  cg2d: iter=    18 ; resid.=  4.60173327462463E-03
(PID.TID 0000.0001)  cg2d: iter=    19 ; resid.=  3.97226793269386E-03
(PID.TID 0000.0001)  cg2d: iter=    20 ; resid.=  3.04241412954858E-03
(PID.TID 0000.0001)  cg2d: iter=    21 ; resid.=  2.34367291555850E-03
(PID.TID 0000.0001)  cg2d: iter=    22 ; resid.=  2.13478419874645E-03
(PID.TID 0000.0001)  cg2d: iter=    23 ; resid.=  1.82858208340148E-03
(PID.TID 0000.0001)  cg2d: iter=    24 ; resid.=  1.38743337957003E-03
(PID.TID 0000.0001)  cg2d: iter=    25 ; resid.=  1.10272211753200E-03
(PID.TID 0000.0001)  cg2d: iter=    26 ; resid.=  8.92651527699720E-04
(PID.TID 0000.0001)  cg2d: iter=    27 ; resid.=  7.48365316805214E-04
(PID.TID 0000.0001)  cg2d: iter=    28 ; resid.=  6.45825123623288E-04
(PID.TID 0000.0001)  cg2d: iter=    29 ; resid.=  5.39418832892655E-04
(PID.TID 0000.0001)  cg2d: iter=    30 ; resid.=  4.13464680852290E-04
(PID.TID 0000.0001)  cg2d: iter=    31 ; resid.=  3.39763290713976E-04
(PID.TID 0000.0001)  cg2d: iter=    32 ; resid.=  2.75194616855020E-04
(PID.TID 0000.0001)  cg2d: iter=    33 ; resid.=  2.15703462860221E-04
(PID.TID 0000.0001)  cg2d: iter=    34 ; resid.=  1.74427212585726E-04
(PID.TID 0000.0001)  cg2d: iter=    35 ; resid.=  1.34734137963258E-04
(PID.TID 0000.0001)  cg2d: iter=    36 ; resid.=  1.09663969673784E-04
(PID.TID 0000.0001)  cg2d: iter=    37 ; resid.=  9.42282885756727E-05
(PID.TID 0000.0001)  cg2d: iter=    38 ; resid.=  8.70337406054492E-05
(PID.TID 0000.0001)  cg2d: iter=    39 ; resid.=  7.30205410565384E-05
(PID.TID 0000.0001)  cg2d: iter=    40 ; resid.=  6.06385219275456E-05
(PID.TID 0000.0001)  cg2d: iter=    41 ; resid.=  4.92455851987896E-05
(PID.TID 0000.0001)  cg2d: iter=    42 ; resid.=  4.39540983527365E-05
(PID.TID 0000.0001)  cg2d: iter=    43 ; resid.=  3.96020688927191E-05
(PID.TID 0000.0001)  cg2d: iter=    44 ; resid.=  3.23478128709567E-05
(PID.TID 0000.0001)  cg2d: iter=    45 ; resid.=  2.50109323316758E-05
(PID.TID 0000.0001)  cg2d: iter=    46 ; resid.=  1.98844813571852E-05
(PID.TID 0000.0001)  cg2d: iter=    47 ; resid.=  1.66410381209313E-05
(PID.TID 0000.0001)  cg2d: iter=    48 ; resid.=  1.49044240109026E-05
(PID.TID 0000.0001)  cg2d: iter=    49 ; resid.=  1.25531814156433E-05
(PID.TID 0000.0001)  cg2d: iter=    50 ; resid.=  1.11159318094582E-05
(PID.TID 0000.0001)  cg2d: iter=    51 ; resid.=  9.98463328878873E-06
(PID.TID 0000.0001)  cg2d: iter=    52 ; resid.=  8.66577087700129E-06
(PID.TID 0000.0001)  cg2d: iter=    53 ; resid.=  7.59185093887295E-06
(PID.TID 0000.0001)  cg2d: iter=    54 ; resid.=  6.22413338195661E-06
(PID.TID 0000.0001)  cg2d: iter=    55 ; resid.=  4.75686515073786E-06
(PID.TID 0000.0001)  cg2d: iter=    56 ; resid.=  3.93440493608714E-06
(PID.TID 0000.0001)  cg2d: iter=    57 ; resid.=  3.45261820851764E-06
(PID.TID 0000.0001)  cg2d: iter=    58 ; resid.=  2.89084536284870E-06
(PID.TID 0000.0001)  cg2d: iter=    59 ; resid.=  2.27670612789064E-06
(PID.TID 0000.0001)  cg2d: iter=    60 ; resid.=  1.78890710153183E-06
(PID.TID 0000.0001)  cg2d: iter=    61 ; resid.=  1.58261818285471E-06
(PID.TID 0000.0001)  cg2d: iter=    62 ; resid.=  1.31026184390520E-06
(PID.TID 0000.0001)  cg2d: iter=    63 ; resid.=  9.70562976390802E-07
(PID.TID 0000.0001)  cg2d: iter=    64 ; resid.=  7.91860654529413E-07
(PID.TID 0000.0001)  cg2d: iter=    65 ; resid.=  6.59129066341797E-07
(PID.TID 0000.0001)  cg2d: iter=    66 ; resid.=  5.29362644470887E-07
(PID.TID 0000.0001)  cg2d: iter=    67 ; resid.=  4.05050409337313E-07
(PID.TID 0000.0001)  cg2d: iter=    68 ; resid.=  3.18879928111182E-07
(PID.TID 0000.0001)  cg2d: iter=    69 ; resid.=  2.73831425589731E-07
(PID.TID 0000.0001)  cg2d: iter=    70 ; resid.=  2.51283157008380E-07
(PID.TID 0000.0001)  cg2d: iter=    71 ; resid.=  2.16167573300811E-07
(PID.TID 0000.0001)  cg2d: iter=    72 ; resid.=  1.85289943418562E-07
(PID.TID 0000.0001)  cg2d: iter=    73 ; resid.=  1.55467394382816E-07
(PID.TID 0000.0001)  cg2d: iter=    74 ; resid.=  1.31462723243983E-07
(PID.TID 0000.0001)  cg2d: iter=    75 ; resid.=  1.17848790168521E-07
(PID.TID 0000.0001)  cg2d: iter=    76 ; resid.=  1.04128113119296E-07
(PID.TID 0000.0001)  cg2d: iter=    77 ; resid.=  8.08304566097622E-08
(PID.TID 0000.0001)  cg2d: iter=    78 ; resid.=  5.83728378528605E-08
(PID.TID 0000.0001)  cg2d: iter=    79 ; resid.=  4.60813371083332E-08
(PID.TID 0000.0001)  cg2d: iter=    80 ; resid.=  4.00377103693805E-08
(PID.TID 0000.0001)  cg2d: iter=    81 ; resid.=  3.14610756318221E-08
(PID.TID 0000.0001)  cg2d: iter=    82 ; resid.=  2.25634974844428E-08
(PID.TID 0000.0001)  cg2d: iter=    83 ; resid.=  1.69336928945178E-08
(PID.TID 0000.0001)  cg2d: iter=    84 ; resid.=  1.39005382812943E-08
(PID.TID 0000.0001)  cg2d: iter=    85 ; resid.=  1.15037015221730E-08
(PID.TID 0000.0001)  cg2d: iter=    86 ; resid.=  8.65396507058755E-09
(PID.TID 0000.0001)  cg2d: iter=    87 ; resid.=  6.62218089779835E-09
(PID.TID 0000.0001)  cg2d: iter=    88 ; resid.=  5.13206484621047E-09
(PID.TID 0000.0001)  cg2d: iter=    89 ; resid.=  4.57893219160501E-09
(PID.TID 0000.0001)  cg2d: iter=    90 ; resid.=  4.04854448914947E-09
(PID.TID 0000.0001)  cg2d: iter=    91 ; resid.=  3.22290477511209E-09
(PID.TID 0000.0001)  cg2d: iter=    92 ; resid.=  2.20189435324376E-09
(PID.TID 0000.0001)  cg2d: iter=    93 ; resid.=  1.43898555248685E-09
(PID.TID 0000.0001)  cg2d: iter=    94 ; resid.=  1.10477421252158E-09
(PID.TID 0000.0001)  cg2d: iter=    95 ; resid.=  1.01417402539432E-09
(PID.TID 0000.0001)  cg2d: iter=    96 ; resid.=  8.37977019198674E-10
(PID.TID 0000.0001)  cg2d: iter=    97 ; resid.=  6.13813840388780E-10
(PID.TID 0000.0001)  cg2d: iter=    98 ; resid.=  4.68345624579805E-10
(PID.TID 0000.0001)  cg2d: iter=    99 ; resid.=  4.23438277765975E-10
(PID.TID 0000.0001)  cg2d: iter=   100 ; resid.=  4.17236760019412E-10
(PID.TID 0000.0001)  cg2d: iter=   101 ; resid.=  3.66092277210957E-10
(PID.TID 0000.0001)  cg2d: iter=   102 ; resid.=  2.71091715045379E-10
(PID.TID 0000.0001)  cg2d: iter=   103 ; resid.=  1.98267896971942E-10
(PID.TID 0000.0001)  cg2d: iter=   104 ; resid.=  1.68127501867849E-10
(PID.TID 0000.0001)  cg2d: iter=   105 ; resid.=  1.53294785517528E-10
(PID.TID 0000.0001)  cg2d: iter=   106 ; resid.=  1.22499635900699E-10
(PID.TID 0000.0001)  cg2d: iter=   107 ; resid.=  8.33612444207914E-11
(PID.TID 0000.0001)  cg2d: iter=   108 ; resid.=  5.97010516035090E-11
(PID.TID 0000.0001)  cg2d: iter=   109 ; resid.=  4.85708963939003E-11
(PID.TID 0000.0001)  cg2d: iter=   110 ; resid.=  4.30877652591573E-11
(PID.TID 0000.0001)  cg2d: iter=   111 ; resid.=  3.08860593169828E-11
(PID.TID 0000.0001)  cg2d: iter=   112 ; resid.=  2.12122582040063E-11
(PID.TID 0000.0001)  cg2d: iter=   113 ; resid.=  1.51954508099668E-11
(PID.TID 0000.0001)  cg2d: iter=   114 ; resid.=  1.18783722371962E-11
(PID.TID 0000.0001)  cg2d: iter=   115 ; resid.=  9.67705693516712E-12
(PID.TID 0000.0001)  cg2d: iter=   116 ; resid.=  7.48329961110926E-12
(PID.TID 0000.0001)  cg2d: iter=   117 ; resid.=  5.58174627092426E-12
(PID.TID 0000.0001)  cg2d: iter=   118 ; resid.=  4.15130282826668E-12
(PID.TID 0000.0001)  cg2d: iter=   119 ; resid.=  3.57767429376952E-12
(PID.TID 0000.0001)  cg2d: iter=   120 ; resid.=  3.04558640564433E-12
(PID.TID 0000.0001)  cg2d: iter=   121 ; resid.=  2.22604532733094E-12
(PID.TID 0000.0001)  cg2d: iter=   122 ; resid.=  1.51227609543440E-12
(PID.TID 0000.0001)  cg2d: iter=   123 ; resid.=  1.11965399611418E-12
(PID.TID 0000.0001)  cg2d: iter=   124 ; resid.=  9.17580400947676E-13
(PID.TID 0000.0001)  cg2d: iter=   125 ; resid.=  7.38624641775413E-13
(PID.TID 0000.0001)  cg2d: iter=   126 ; resid.=  5.28832961017174E-13
(PID.TID 0000.0001)  cg2d: iter=   127 ; resid.=  3.26760465624798E-13
(PID.TID 0000.0001)  cg2d: iter=   128 ; resid.=  1.93328669134509E-13
(PID.TID 0000.0001)  cg2d: iter=   129 ; resid.=  1.35752129804537E-13
(PID.TID 0000.0001)  cg2d: iter=   130 ; resid.=  1.09325998781909E-13
(PID.TID 0000.0001)  cg2d: iter=   131 ; resid.=  8.43629174976493E-14
DEBUG_STATS_RL:    cg2d_x (SOLVE_FOR_PRESSURE)  min= -1.82081918120121E+01
DEBUG_STATS_RL:    cg2d_x (SOLVE_FOR_PRESSURE)  max=  8.29430451303405E+00
DEBUG_STATS_RL:    cg2d_x (SOLVE_FOR_PRESSURE) mean= -1.75763457510511E+00
DEBUG_STATS_RL:    cg2d_x (SOLVE_FOR_PRESSURE) S.D.=  6.83467677339689E+00
(PID.TID 0000.0001)      cg2d_init_res =   2.81482503752410E-01
(PID.TID 0000.0001)      cg2d_iters(min,last) =      -1     131
(PID.TID 0000.0001)      cg2d_last_res =   8.43629174976493E-14
(PID.TID 0000.0001) // =======================================================
(PID.TID 0000.0001) // Begin MONITOR dynamic field statistics
(PID.TID 0000.0001) // =======================================================
(PID.TID 0000.0001) %MON time_tsnumber                =                    51
(PID.TID 0000.0001) %MON time_secondsf                =   4.4064000000000E+06
(PID.TID 0000.0001) %MON dynstat_eta_max              =   8.4549485352042E-01
(PID.TID 0000.0001) %MON dynstat_eta_min              =  -1.8560847922540E+00
(PID.TID 0000.0001) %MON dynstat_eta_mean             =  -3.8500795483776E-03
(PID.TID 0000.0001) %MON dynstat_eta_sd               =   6.0362923114291E-01
(PID.TID 0000.0001) %MON dynstat_eta_del2             =   2.2679240209853E-03
(PID.TID 0000.0001) %MON dynstat_uvel_max             =   1.8724729035906E-01
(PID.TID 0000.0001) %MON dynstat_uvel_min             =  -1.2736586715234E-01
(PID.TID 0000.0001) %MON dynstat_uvel_mean            =   2.2143985803261E-03
(PID.TID 0000.0001) %MON dynstat_uvel_sd              =   1.4279849523194E-02
(PID.TID 0000.0001) %MON dynstat_uvel_del2            =   8.4060904103906E-05
(PID.TID 0000.0001) %MON dynstat_vvel_max             =   1.3740729265134E-01
(PID.TID 0000.0001) %MON dynstat_vvel_min             =  -9.5341669175506E-02
(PID.TID 0000.0001) %MON dynstat_vvel_mean            =  -1.8997515852381E-06
(PID.TID 0000.0001) %MON dynstat_vvel_sd              =   8.3947048686602E-03
(PID.TID 0000.0001) %MON dynstat_vvel_del2            =   7.3114430126482E-05
(PID.TID 0000.0001) %MON dynstat_wvel_max             =   1.4553794788318E-04
(PID.TID 0000.0001) %MON dynstat_wvel_min             =  -7.5645806809120E-05
(PID.TID 0000.0001) %MON dynstat_wvel_mean            =   1.6847169857765E-23
(PID.TID 0000.0001) %MON dynstat_wvel_sd              =   1.1802057465809E-05
(PID.TID 0000.0001) %MON dynstat_wvel_del2            =   1.2230697160339E-07
(PID.TID 0000.0001) %MON dynstat_theta_max            =   3.0375780725676E+01
(PID.TID 0000.0001) %MON dynstat_theta_min            =  -1.9819198013698E+00
(PID.TID 0000.0001) %MON dynstat_theta_mean           =   3.6227569297467E+00
(PID.TID 0000.0001) %MON dynstat_theta_sd             =   4.4216435863027E+00
(PID.TID 0000.0001) %MON dynstat_theta_del2           =   4.7882822503212E-03
(PID.TID 0000.0001) %MON dynstat_salt_max             =   3.7460070369137E+01
(PID.TID 0000.0001) %MON dynstat_salt_min             =   2.9852316291931E+01
(PID.TID 0000.0001) %MON dynstat_salt_mean            =   3.4717988229394E+01
(PID.TID 0000.0001) %MON dynstat_salt_sd              =   2.9638921798907E-01
(PID.TID 0000.0001) %MON dynstat_salt_del2            =   9.8710646214697E-04
(PID.TID 0000.0001) %MON dynstat_sst_max              =   3.0375780725676E+01
(PID.TID 0000.0001) %MON dynstat_sst_min              =  -1.9819198013698E+00
(PID.TID 0000.0001) %MON dynstat_sst_mean             =   1.8937320583637E+01
(PID.TID 0000.0001) %MON dynstat_sst_sd               =   9.0235377731868E+00
(PID.TID 0000.0001) %MON dynstat_sst_del2             =   2.7480699663940E-02
(PID.TID 0000.0001) %MON dynstat_sss_max              =   3.7440333563434E+01
(PID.TID 0000.0001) %MON dynstat_sss_min              =   2.9852316291931E+01
(PID.TID 0000.0001) %MON dynstat_sss_mean             =   3.4843273906307E+01
(PID.TID 0000.0001) %MON dynstat_sss_sd               =   9.7815460436144E-01
(PID.TID 0000.0001) %MON dynstat_sss_del2             =   7.9169515933876E-03
(PID.TID 0000.0001) %MON forcing_qnet_max             =   3.4446148173014E+02
(PID.TID 0000.0001) %MON forcing_qnet_min             =  -1.7133757273356E+02
(PID.TID 0000.0001) %MON forcing_qnet_mean            =  -1.2848553480810E+01
(PID.TID 0000.0001) %MON forcing_qnet_sd              =   7.2593681633689E+01
(PID.TID 0000.0001) %MON forcing_qnet_del2            =   9.2255901635128E-01
(PID.TID 0000.0001) %MON forcing_qsw_max              =   0.0000000000000E+00
(PID.TID 0000.0001) %MON forcing_qsw_min              =   0.0000000000000E+00
(PID.TID 0000.0001) %MON forcing_qsw_mean             =   0.0000000000000E+00
(PID.TID 0000.0001) %MON forcing_qsw_sd               =   0.0000000000000E+00
(PID.TID 0000.0001) %MON forcing_qsw_del2             =   0.0000000000000E+00
(PID.TID 0000.0001) %MON forcing_empmr_max            =   6.9252730365103E-05
(PID.TID 0000.0001) %MON forcing_empmr_min            =  -7.4454014509229E-05
(PID.TID 0000.0001) %MON forcing_empmr_mean           =   8.7795932553760E-07
(PID.TID 0000.0001) %MON forcing_empmr_sd             =   2.7556269282498E-05
(PID.TID 0000.0001) %MON forcing_empmr_del2           =   3.5383860859280E-07
(PID.TID 0000.0001) %MON forcing_fu_max               =   3.1125728785992E-01
(PID.TID 0000.0001) %MON forcing_fu_min               =  -2.4265549828609E-01
(PID.TID 0000.0001) %MON forcing_fu_mean              =   1.8101739563928E-02
(PID.TID 0000.0001) %MON forcing_fu_sd                =   9.3253165137727E-02
(PID.TID 0000.0001) %MON forcing_fu_del2              =   7.1687477636935E-04
(PID.TID 0000.0001) %MON forcing_fv_max               =   1.7315150362750E-01
(PID.TID 0000.0001) %MON forcing_fv_min               =  -1.9224907457829E-01
(PID.TID 0000.0001) %MON forcing_fv_mean              =  -7.2688666908077E-03
(PID.TID 0000.0001) %MON forcing_fv_sd                =   4.3596000384561E-02
(PID.TID 0000.0001) %MON forcing_fv_del2              =   5.0613264128046E-04
(PID.TID 0000.0001) %MON trAdv_CFL_u_max              =   4.8683310740567E-02
(PID.TID 0000.0001) %MON trAdv_CFL_v_max              =   2.7691789119209E-02
(PID.TID 0000.0001) %MON trAdv_CFL_w_max              =   3.8207057085745E-02
(PID.TID 0000.0001) %MON advcfl_uvel_max              =   4.8952968767437E-02
(PID.TID 0000.0001) %MON advcfl_vvel_max              =   2.6696033214130E-02
(PID.TID 0000.0001) %MON advcfl_wvel_max              =   4.5000240320973E-02
(PID.TID 0000.0001) %MON advcfl_W_hf_max              =   5.4643148961182E-02
(PID.TID 0000.0001) %MON pe_b_mean                    =   4.6627206049471E-04
(PID.TID 0000.0001) %MON ke_max                       =   1.7269519776290E-02
(PID.TID 0000.0001) %MON ke_mean                      =   1.2650657864895E-04
(PID.TID 0000.0001) %MON ke_vol                       =   1.3226782436723E+18
(PID.TID 0000.0001) %MON vort_r_min                   =  -4.6648995938850E-07
(PID.TID 0000.0001) %MON vort_r_max                   =   4.0214849502221E-07
(PID.TID 0000.0001) %MON vort_a_mean                  =  -2.5274807028415E-05
(PID.TID 0000.0001) %MON vort_a_sd                    =   7.3604657710627E-05
(PID.TID 0000.0001) %MON vort_p_mean                  =  -3.1845655334496E-05
(PID.TID 0000.0001) %MON vort_p_sd                    =   1.3162471461829E-04
(PID.TID 0000.0001) %MON surfExpan_theta_mean         =   3.6093547610999E-07
(PID.TID 0000.0001) %MON surfExpan_salt_mean          =  -3.0241169009962E-08
(PID.TID 0000.0001) // =======================================================
(PID.TID 0000.0001) // End MONITOR dynamic field statistics
(PID.TID 0000.0001) // =======================================================
 EXTERNAL_FIELDS_LOAD,        51 : iP,iLd,i0,i1=    2    3    2    3 ; Wght=  0.8000000000  0.2000000000
 EXTERNAL_FIELDS_LOAD: (fu0,1),fu,fv= -1.4435E-02 -2.7199E-02 -1.6988E-02 -1.4224E-02
 EXTERNAL_FIELDS_LOAD: SST,SSS,Q,E-P= -4.6227E-01  3.4453E+01  2.3546E+02  8.5179E-06
DEBUG_STATS_RL:          Uvel (THERMODYNAMICS)  min= -1.27365867152344E-01
DEBUG_STATS_RL:          Uvel (THERMODYNAMICS)  max=  1.87247290359064E-01
DEBUG_STATS_RL:          Uvel (THERMODYNAMICS) mean=  5.60810141969606E-03
DEBUG_STATS_RL:          Uvel (THERMODYNAMICS) S.D.=  2.35027473294300E-02
DEBUG_STATS_RL:          Vvel (THERMODYNAMICS)  min= -9.53416691755055E-02
DEBUG_STATS_RL:          Vvel (THERMODYNAMICS)  max=  1.37407292651345E-01
DEBUG_STATS_RL:          Vvel (THERMODYNAMICS) mean=  1.58745009413986E-03
DEBUG_STATS_RL:          Vvel (THERMODYNAMICS) S.D.=  1.39275541932721E-02
DEBUG_STATS_RL:          Wvel (THERMODYNAMICS)  min= -7.56458068091196E-05
DEBUG_STATS_RL:          Wvel (THERMODYNAMICS)  max=  1.45537947883183E-04
DEBUG_STATS_RL:          Wvel (THERMODYNAMICS) mean=  5.45259893580919E-08
DEBUG_STATS_RL:          Wvel (THERMODYNAMICS) S.D.=  1.05108065936627E-05
DEBUG_STATS_RL:         Theta (THERMODYNAMICS)  min= -1.98029836541641E+00
DEBUG_STATS_RL:         Theta (THERMODYNAMICS)  max=  3.03859174986198E+01
DEBUG_STATS_RL:         Theta (THERMODYNAMICS) mean=  3.21870595268432E+00
DEBUG_STATS_RL:         Theta (THERMODYNAMICS) S.D.=  5.87294427325017E+00
DEBUG_STATS_RL:          Salt (THERMODYNAMICS)  min= -2.25514051876985E-17
DEBUG_STATS_RL:          Salt (THERMODYNAMICS)  max=  3.74609882006678E+01
DEBUG_STATS_RL:          Salt (THERMODYNAMICS) mean=  1.88449408036432E+01
DEBUG_STATS_RL:          Salt (THERMODYNAMICS) S.D.=  1.73004583078376E+01
DEBUG_STATS_RL:         GtNm1 (THERMODYNAMICS)  min= -5.46541924261381E-06
DEBUG_STATS_RL:         GtNm1 (THERMODYNAMICS)  max=  2.83147208830189E-06
DEBUG_STATS_RL:         GtNm1 (THERMODYNAMICS) mean=  3.71275450354024E-09
DEBUG_STATS_RL:         GtNm1 (THERMODYNAMICS) S.D.=  1.85971579733999E-07
DEBUG_STATS_RL:         GsNm1 (THERMODYNAMICS)  min= -5.34355699964212E-07
DEBUG_STATS_RL:         GsNm1 (THERMODYNAMICS)  max=  3.48598362856369E-07
DEBUG_STATS_RL:         GsNm1 (THERMODYNAMICS) mean= -6.53539537895277E-12
DEBUG_STATS_RL:         GsNm1 (THERMODYNAMICS) S.D.=  1.83268257555539E-08
DEBUG_STATS_RL:                EtaN (DYNAMICS)  min= -1.85608479225401E+00
DEBUG_STATS_RL:                EtaN (DYNAMICS)  max=  8.45494853520424E-01
DEBUG_STATS_RL:                EtaN (DYNAMICS) mean= -1.79167642722233E-01
DEBUG_STATS_RL:                EtaN (DYNAMICS) S.D.=  6.96705073740762E-01
DEBUG_STATS_RL:                Uvel (DYNAMICS)  min= -1.27365867152344E-01
DEBUG_STATS_RL:                Uvel (DYNAMICS)  max=  1.87247290359064E-01
DEBUG_STATS_RL:                Uvel (DYNAMICS) mean=  5.60810141969606E-03
DEBUG_STATS_RL:                Uvel (DYNAMICS) S.D.=  2.35027473294300E-02
DEBUG_STATS_RL:                Vvel (DYNAMICS)  min= -9.53416691755055E-02
DEBUG_STATS_RL:                Vvel (DYNAMICS)  max=  1.37407292651345E-01
DEBUG_STATS_RL:                Vvel (DYNAMICS) mean=  1.58745009413986E-03
DEBUG_STATS_RL:                Vvel (DYNAMICS) S.D.=  1.39275541932721E-02
DEBUG_STATS_RL:                Wvel (DYNAMICS)  min= -7.56458068091196E-05
DEBUG_STATS_RL:                Wvel (DYNAMICS)  max=  1.45537947883183E-04
DEBUG_STATS_RL:                Wvel (DYNAMICS) mean=  5.45259893580919E-08
DEBUG_STATS_RL:                Wvel (DYNAMICS) S.D.=  1.05108065936627E-05
DEBUG_STATS_RL:               Theta (DYNAMICS)  min= -1.98029836541641E+00
DEBUG_STATS_RL:               Theta (DYNAMICS)  max=  3.03859174986198E+01
DEBUG_STATS_RL:               Theta (DYNAMICS) mean=  3.21870595268432E+00
DEBUG_STATS_RL:               Theta (DYNAMICS) S.D.=  5.87294427325017E+00
DEBUG_STATS_RL:                Salt (DYNAMICS)  min= -2.25514051876985E-17
DEBUG_STATS_RL:                Salt (DYNAMICS)  max=  3.74609882006678E+01
DEBUG_STATS_RL:                Salt (DYNAMICS) mean=  1.88449408036432E+01
DEBUG_STATS_RL:                Salt (DYNAMICS) S.D.=  1.73004583078376E+01
DEBUG_STATS_RL:                  Gu (DYNAMICS)  min= -1.25336142074209E-01
DEBUG_STATS_RL:                  Gu (DYNAMICS)  max=  1.91496230758677E-01
DEBUG_STATS_RL:                  Gu (DYNAMICS) mean=  5.48401485069768E-03
DEBUG_STATS_RL:                  Gu (DYNAMICS) S.D.=  2.34638041802607E-02
DEBUG_STATS_RL:                  Gv (DYNAMICS)  min= -9.35432100285332E-02
DEBUG_STATS_RL:                  Gv (DYNAMICS)  max=  1.40641163823064E-01
DEBUG_STATS_RL:                  Gv (DYNAMICS) mean=  4.11261712447470E-03
DEBUG_STATS_RL:                  Gv (DYNAMICS) S.D.=  1.55115079088835E-02
DEBUG_STATS_RL:               GuNm1 (DYNAMICS)  min= -9.51215482897582E-06
DEBUG_STATS_RL:               GuNm1 (DYNAMICS)  max=  8.95248841716822E-06
DEBUG_STATS_RL:               GuNm1 (DYNAMICS) mean= -6.57931814531801E-09
DEBUG_STATS_RL:               GuNm1 (DYNAMICS) S.D.=  1.18104164218791E-06
DEBUG_STATS_RL:               GvNm1 (DYNAMICS)  min= -9.56294154159713E-06
DEBUG_STATS_RL:               GvNm1 (DYNAMICS)  max=  1.63535393289547E-05
DEBUG_STATS_RL:               GvNm1 (DYNAMICS) mean=  7.45566381480356E-07
DEBUG_STATS_RL:               GvNm1 (DYNAMICS) S.D.=  2.61030118665046E-06
DEBUG_STATS_RL:               GtNm1 (DYNAMICS)  min= -5.46541924261381E-06
DEBUG_STATS_RL:               GtNm1 (DYNAMICS)  max=  2.83147208830189E-06
DEBUG_STATS_RL:               GtNm1 (DYNAMICS) mean=  3.71275450354024E-09
DEBUG_STATS_RL:               GtNm1 (DYNAMICS) S.D.=  1.85971579733999E-07
DEBUG_STATS_RL:               GsNm1 (DYNAMICS)  min= -5.34355699964212E-07
DEBUG_STATS_RL:               GsNm1 (DYNAMICS)  max=  3.48598362856369E-07
DEBUG_STATS_RL:               GsNm1 (DYNAMICS) mean= -6.53539537895277E-12
DEBUG_STATS_RL:               GsNm1 (DYNAMICS) S.D.=  1.83268257555539E-08
DEBUG_STATS_RL:    cg2d_b (SOLVE_FOR_PRESSURE)  min= -2.03633228269285E+04
DEBUG_STATS_RL:    cg2d_b (SOLVE_FOR_PRESSURE)  max=  2.58030210679924E+04
DEBUG_STATS_RL:    cg2d_b (SOLVE_FOR_PRESSURE) mean=  3.75921750733635E+00
DEBUG_STATS_RL:    cg2d_b (SOLVE_FOR_PRESSURE) S.D.=  3.74292322249473E+03
 cg2d: Sum(rhs),rhsMax =   3.37270140056556E-01  1.69481150941779E+00
(PID.TID 0000.0001)  cg2d: iter=     1 ; resid.=  8.17480690248850E-02
(PID.TID 0000.0001)  cg2d: iter=     2 ; resid.=  5.03696270443246E-02
(PID.TID 0000.0001)  cg2d: iter=     3 ; resid.=  5.85749484823918E-02
(PID.TID 0000.0001)  cg2d: iter=     4 ; resid.=  5.95576300615862E-02
(PID.TID 0000.0001)  cg2d: iter=     5 ; resid.=  5.33910786634363E-02
(PID.TID 0000.0001)  cg2d: iter=     6 ; resid.=  4.67269165916093E-02
(PID.TID 0000.0001)  cg2d: iter=     7 ; resid.=  3.74449601406532E-02
(PID.TID 0000.0001)  cg2d: iter=     8 ; resid.=  2.79877559899359E-02
(PID.TID 0000.0001)  cg2d: iter=     9 ; resid.=  2.14244887056186E-02
(PID.TID 0000.0001)  cg2d: iter=    10 ; resid.=  1.77774563470459E-02
(PID.TID 0000.0001)  cg2d: iter=    11 ; resid.=  1.43295620163128E-02
(PID.TID 0000.0001)  cg2d: iter=    12 ; resid.=  1.13926467383081E-02
(PID.TID 0000.0001)  cg2d: iter=    13 ; resid.=  8.87266858443678E-03
(PID.TID 0000.0001)  cg2d: iter=    14 ; resid.=  7.79792692384049E-03
(PID.TID 0000.0001)  cg2d: iter=    15 ; resid.=  7.20501140073373E-03
(PID.TID 0000.0001)  cg2d: iter=    16 ; resid.=  5.85126812572868E-03
(PID.TID 0000.0001)  cg2d: iter=    17 ; resid.=  5.17063424481098E-03
(PID.TID 0000.0001)  cg2d: iter=    18 ; resid.=  4.69712320669920E-03
(PID.TID 0000.0001)  cg2d: iter=    19 ; resid.=  3.95248821948987E-03
(PID.TID 0000.0001)  cg2d: iter=    20 ; resid.=  2.98323258676197E-03
(PID.TID 0000.0001)  cg2d: iter=    21 ; resid.=  2.31193810062447E-03
(PID.TID 0000.0001)  cg2d: iter=    22 ; resid.=  2.09768506375505E-03
(PID.TID 0000.0001)  cg2d: iter=    23 ; resid.=  1.77200274819646E-03
(PID.TID 0000.0001)  cg2d: iter=    24 ; resid.=  1.36932853436558E-03
(PID.TID 0000.0001)  cg2d: iter=    25 ; resid.=  1.11152266234820E-03
(PID.TID 0000.0001)  cg2d: iter=    26 ; resid.=  8.90085835971768E-04
(PID.TID 0000.0001)  cg2d: iter=    27 ; resid.=  7.35944050114215E-04
(PID.TID 0000.0001)  cg2d: iter=    28 ; resid.=  6.34223534608508E-04
(PID.TID 0000.0001)  cg2d: iter=    29 ; resid.=  5.20710974710902E-04
(PID.TID 0000.0001)  cg2d: iter=    30 ; resid.=  3.98825177824217E-04
(PID.TID 0000.0001)  cg2d: iter=    31 ; resid.=  3.30078131733550E-04
(PID.TID 0000.0001)  cg2d: iter=    32 ; resid.=  2.65012654169665E-04
(PID.TID 0000.0001)  cg2d: iter=    33 ; resid.=  2.07761652115837E-04
(PID.TID 0000.0001)  cg2d: iter=    34 ; resid.=  1.68752206817163E-04
(PID.TID 0000.0001)  cg2d: iter=    35 ; resid.=  1.29506025574681E-04
(PID.TID 0000.0001)  cg2d: iter=    36 ; resid.=  1.03727728568918E-04
(PID.TID 0000.0001)  cg2d: iter=    37 ; resid.=  8.83327669196101E-05
(PID.TID 0000.0001)  cg2d: iter=    38 ; resid.=  8.18729713759646E-05
(PID.TID 0000.0001)  cg2d: iter=    39 ; resid.=  6.75205168587203E-05
(PID.TID 0000.0001)  cg2d: iter=    40 ; resid.=  5.50828337518406E-05
(PID.TID 0000.0001)  cg2d: iter=    41 ; resid.=  4.40767678341840E-05
(PID.TID 0000.0001)  cg2d: iter=    42 ; resid.=  3.84684460700172E-05
(PID.TID 0000.0001)  cg2d: iter=    43 ; resid.=  3.43069469001221E-05
(PID.TID 0000.0001)  cg2d: iter=    44 ; resid.=  2.79534433465475E-05
(PID.TID 0000.0001)  cg2d: iter=    45 ; resid.=  2.12630058365383E-05
(PID.TID 0000.0001)  cg2d: iter=    46 ; resid.=  1.65635696871029E-05
(PID.TID 0000.0001)  cg2d: iter=    47 ; resid.=  1.36885912528606E-05
(PID.TID 0000.0001)  cg2d: iter=    48 ; resid.=  1.20298844681812E-05
(PID.TID 0000.0001)  cg2d: iter=    49 ; resid.=  9.98216602033992E-06
(PID.TID 0000.0001)  cg2d: iter=    50 ; resid.=  8.73154886886686E-06
(PID.TID 0000.0001)  cg2d: iter=    51 ; resid.=  7.76888478752565E-06
(PID.TID 0000.0001)  cg2d: iter=    52 ; resid.=  6.70548203686309E-06
(PID.TID 0000.0001)  cg2d: iter=    53 ; resid.=  6.00496918460330E-06
(PID.TID 0000.0001)  cg2d: iter=    54 ; resid.=  5.05347613566519E-06
(PID.TID 0000.0001)  cg2d: iter=    55 ; resid.=  3.94254493204746E-06
(PID.TID 0000.0001)  cg2d: iter=    56 ; resid.=  3.37718689001261E-06
(PID.TID 0000.0001)  cg2d: iter=    57 ; resid.=  3.05018211196474E-06
(PID.TID 0000.0001)  cg2d: iter=    58 ; resid.=  2.57537426943520E-06
(PID.TID 0000.0001)  cg2d: iter=    59 ; resid.=  2.03875991238599E-06
(PID.TID 0000.0001)  cg2d: iter=    60 ; resid.=  1.62944848865572E-06
(PID.TID 0000.0001)  cg2d: iter=    61 ; resid.=  1.44467513507060E-06
(PID.TID 0000.0001)  cg2d: iter=    62 ; resid.=  1.20635614260756E-06
(PID.TID 0000.0001)  cg2d: iter=    63 ; resid.=  9.11307855993463E-07
(PID.TID 0000.0001)  cg2d: iter=    64 ; resid.=  7.63677551218773E-07
(PID.TID 0000.0001)  cg2d: iter=    65 ; resid.=  6.39570674085675E-07
(PID.TID 0000.0001)  cg2d: iter=    66 ; resid.=  5.19744584463350E-07
(PID.TID 0000.0001)  cg2d: iter=    67 ; resid.=  4.04567045991410E-07
(PID.TID 0000.0001)  cg2d: iter=    68 ; resid.=  3.18782284167092E-07
(PID.TID 0000.0001)  cg2d: iter=    69 ; resid.=  2.76231854769014E-07
(PID.TID 0000.0001)  cg2d: iter=    70 ; resid.=  2.56912424739485E-07
(PID.TID 0000.0001)  cg2d: iter=    71 ; resid.=  2.25237977214937E-07
(PID.TID 0000.0001)  cg2d: iter=    72 ; resid.=  1.94929677073288E-07
(PID.TID 0000.0001)  cg2d: iter=    73 ; resid.=  1.64451113972105E-07
(PID.TID 0000.0001)  cg2d: iter=    74 ; resid.=  1.39018981754052E-07
(PID.TID 0000.0001)  cg2d: iter=    75 ; resid.=  1.22747271813823E-07
(PID.TID 0000.0001)  cg2d: iter=    76 ; resid.=  1.07028585354040E-07
(PID.TID 0000.0001)  cg2d: iter=    77 ; resid.=  8.13264790249376E-08
(PID.TID 0000.0001)  cg2d: iter=    78 ; resid.=  5.84989727770531E-08
(PID.TID 0000.0001)  cg2d: iter=    79 ; resid.=  4.67043148409993E-08
(PID.TID 0000.0001)  cg2d: iter=    80 ; resid.=  3.96674879148353E-08
(PID.TID 0000.0001)  cg2d: iter=    81 ; resid.=  3.07008905899036E-08
(PID.TID 0000.0001)  cg2d: iter=    82 ; resid.=  2.21192587631485E-08
(PID.TID 0000.0001)  cg2d: iter=    83 ; resid.=  1.67304186719950E-08
(PID.TID 0000.0001)  cg2d: iter=    84 ; resid.=  1.36980149490101E-08
(PID.TID 0000.0001)  cg2d: iter=    85 ; resid.=  1.10912304736086E-08
(PID.TID 0000.0001)  cg2d: iter=    86 ; resid.=  8.31985824069616E-09
(PID.TID 0000.0001)  cg2d: iter=    87 ; resid.=  6.32153255945409E-09
(PID.TID 0000.0001)  cg2d: iter=    88 ; resid.=  4.83965153106805E-09
(PID.TID 0000.0001)  cg2d: iter=    89 ; resid.=  4.36885141761451E-09
(PID.TID 0000.0001)  cg2d: iter=    90 ; resid.=  3.94026324235063E-09
(PID.TID 0000.0001)  cg2d: iter=    91 ; resid.=  3.13312228660917E-09
(PID.TID 0000.0001)  cg2d: iter=    92 ; resid.=  2.12445865310444E-09
(PID.TID 0000.0001)  cg2d: iter=    93 ; resid.=  1.39158346700400E-09
(PID.TID 0000.0001)  cg2d: iter=    94 ; resid.=  1.09326119158897E-09
(PID.TID 0000.0001)  cg2d: iter=    95 ; resid.=  1.00644221277484E-09
(PID.TID 0000.0001)  cg2d: iter=    96 ; resid.=  8.26067504624493E-10
(PID.TID 0000.0001)  cg2d: iter=    97 ; resid.=  5.92026181413495E-10
(PID.TID 0000.0001)  cg2d: iter=    98 ; resid.=  4.36577346633743E-10
(PID.TID 0000.0001)  cg2d: iter=    99 ; resid.=  3.86126637883315E-10
(PID.TID 0000.0001)  cg2d: iter=   100 ; resid.=  3.80967254091602E-10
(PID.TID 0000.0001)  cg2d: iter=   101 ; resid.=  3.38833912479845E-10
(PID.TID 0000.0001)  cg2d: iter=   102 ; resid.=  2.53636793533197E-10
(PID.TID 0000.0001)  cg2d: iter=   103 ; resid.=  1.88687114820611E-10
(PID.TID 0000.0001)  cg2d: iter=   104 ; resid.=  1.62630767502284E-10
(PID.TID 0000.0001)  cg2d: iter=   105 ; resid.=  1.50125339395412E-10
(PID.TID 0000.0001)  cg2d: iter=   106 ; resid.=  1.20514438799320E-10
(PID.TID 0000.0001)  cg2d: iter=   107 ; resid.=  8.12543205077759E-11
(PID.TID 0000.0001)  cg2d: iter=   108 ; resid.=  5.77247235320657E-11
(PID.TID 0000.0001)  cg2d: iter=   109 ; resid.=  4.73300427173305E-11
(PID.TID 0000.0001)  cg2d: iter=   110 ; resid.=  4.21868287306586E-11
(PID.TID 0000.0001)  cg2d: iter=   111 ; resid.=  3.01512654566668E-11
(PID.TID 0000.0001)  cg2d: iter=   112 ; resid.=  2.06817061259636E-11
(PID.TID 0000.0001)  cg2d: iter=   113 ; resid.=  1.47357572707612E-11
(PID.TID 0000.0001)  cg2d: iter=   114 ; resid.=  1.15792596648373E-11
(PID.TID 0000.0001)  cg2d: iter=   115 ; resid.=  9.54537276438904E-12
(PID.TID 0000.0001)  cg2d: iter=   116 ; resid.=  7.42974969968555E-12
(PID.TID 0000.0001)  cg2d: iter=   117 ; resid.=  5.46397751788642E-12
(PID.TID 0000.0001)  cg2d: iter=   118 ; resid.=  3.98337090121456E-12
(PID.TID 0000.0001)  cg2d: iter=   119 ; resid.=  3.45408669096655E-12
(PID.TID 0000.0001)  cg2d: iter=   120 ; resid.=  3.01570240680813E-12
(PID.TID 0000.0001)  cg2d: iter=   121 ; resid.=  2.23867698854968E-12
(PID.TID 0000.0001)  cg2d: iter=   122 ; resid.=  1.52262968315822E-12
(PID.TID 0000.0001)  cg2d: iter=   123 ; resid.=  1.12771753773085E-12
(PID.TID 0000.0001)  cg2d: iter=   124 ; resid.=  9.34779522284820E-13
(PID.TID 0000.0001)  cg2d: iter=   125 ; resid.=  7.54670809520548E-13
(PID.TID 0000.0001)  cg2d: iter=   126 ; resid.=  5.34964491875040E-13
(PID.TID 0000.0001)  cg2d: iter=   127 ; resid.=  3.24335787473194E-13
(PID.TID 0000.0001)  cg2d: iter=   128 ; resid.=  1.87933160038204E-13
(PID.TID 0000.0001)  cg2d: iter=   129 ; resid.=  1.27699778097752E-13
(PID.TID 0000.0001)  cg2d: iter=   130 ; resid.=  1.00180918854881E-13
(PID.TID 0000.0001)  cg2d: iter=   131 ; resid.=  7.65461641617136E-14
DEBUG_STATS_RL:    cg2d_x (SOLVE_FOR_PRESSURE)  min= -1.83880868682409E+01
DEBUG_STATS_RL:    cg2d_x (SOLVE_FOR_PRESSURE)  max=  8.37650062856663E+00
DEBUG_STATS_RL:    cg2d_x (SOLVE_FOR_PRESSURE) mean= -1.77061063582243E+00
DEBUG_STATS_RL:    cg2d_x (SOLVE_FOR_PRESSURE) S.D.=  6.89407126530203E+00
(PID.TID 0000.0001)      cg2d_init_res =   2.76944315028174E-01
(PID.TID 0000.0001)      cg2d_iters(min,last) =      -1     131
(PID.TID 0000.0001)      cg2d_last_res =   7.65461641617136E-14
(PID.TID 0000.0001) // =======================================================
(PID.TID 0000.0001) // Begin MONITOR dynamic field statistics
(PID.TID 0000.0001) // =======================================================
(PID.TID 0000.0001) %MON time_tsnumber                =                    52
(PID.TID 0000.0001) %MON time_secondsf                =   4.4928000000000E+06
(PID.TID 0000.0001) %MON dynstat_eta_max              =   8.5387366244310E-01
(PID.TID 0000.0001) %MON dynstat_eta_min              =  -1.8744227184752E+00
(PID.TID 0000.0001) %MON dynstat_eta_mean             =  -3.9222773413234E-03
(PID.TID 0000.0001) %MON dynstat_eta_sd               =   6.0974523115654E-01
(PID.TID 0000.0001) %MON dynstat_eta_del2             =   2.2842023967692E-03
(PID.TID 0000.0001) %MON dynstat_uvel_max             =   1.8616983123308E-01
(PID.TID 0000.0001) %MON dynstat_uvel_min             =  -1.2566214248980E-01
(PID.TID 0000.0001) %MON dynstat_uvel_mean            =   2.2443407401387E-03
(PID.TID 0000.0001) %MON dynstat_uvel_sd              =   1.4085807946620E-02
(PID.TID 0000.0001) %MON dynstat_uvel_del2            =   8.3285902927512E-05
(PID.TID 0000.0001) %MON dynstat_vvel_max             =   1.3940899983650E-01
(PID.TID 0000.0001) %MON dynstat_vvel_min             =  -9.2996568774357E-02
(PID.TID 0000.0001) %MON dynstat_vvel_mean            =  -8.3546272431331E-06
(PID.TID 0000.0001) %MON dynstat_vvel_sd              =   8.3617723203221E-03
(PID.TID 0000.0001) %MON dynstat_vvel_del2            =   7.2588391634130E-05
(PID.TID 0000.0001) %MON dynstat_wvel_max             =   1.4306039152494E-04
(PID.TID 0000.0001) %MON dynstat_wvel_min             =  -7.1346604814915E-05
(PID.TID 0000.0001) %MON dynstat_wvel_mean            =   1.1416853365150E-22
(PID.TID 0000.0001) %MON dynstat_wvel_sd              =   1.1608553014983E-05
(PID.TID 0000.0001) %MON dynstat_wvel_del2            =   1.2114891676581E-07
(PID.TID 0000.0001) %MON dynstat_theta_max            =   3.0385917498620E+01
(PID.TID 0000.0001) %MON dynstat_theta_min            =  -1.9802983654164E+00
(PID.TID 0000.0001) %MON dynstat_theta_mean           =   3.6228194906500E+00
(PID.TID 0000.0001) %MON dynstat_theta_sd             =   4.4218541801379E+00
(PID.TID 0000.0001) %MON dynstat_theta_del2           =   4.8002213660406E-03
(PID.TID 0000.0001) %MON dynstat_salt_max             =   3.7460988200668E+01
(PID.TID 0000.0001) %MON dynstat_salt_min             =   2.9854587438598E+01
(PID.TID 0000.0001) %MON dynstat_salt_mean            =   3.4717989917122E+01
(PID.TID 0000.0001) %MON dynstat_salt_sd              =   2.9639790281694E-01
(PID.TID 0000.0001) %MON dynstat_salt_del2            =   9.8730818921529E-04
(PID.TID 0000.0001) %MON dynstat_sst_max              =   3.0385917498620E+01
(PID.TID 0000.0001) %MON dynstat_sst_min              =  -1.9802983654164E+00
(PID.TID 0000.0001) %MON dynstat_sst_mean             =   1.8943854183035E+01
(PID.TID 0000.0001) %MON dynstat_sst_sd               =   9.0274087135519E+00
(PID.TID 0000.0001) %MON dynstat_sst_del2             =   2.7522868120609E-02
(PID.TID 0000.0001) %MON dynstat_sss_max              =   3.7441314902216E+01
(PID.TID 0000.0001) %MON dynstat_sss_min              =   2.9854587438598E+01
(PID.TID 0000.0001) %MON dynstat_sss_mean             =   3.4843029867275E+01
(PID.TID 0000.0001) %MON dynstat_sss_sd               =   9.7836009384206E-01
(PID.TID 0000.0001) %MON dynstat_sss_del2             =   7.9214449365476E-03
(PID.TID 0000.0001) %MON forcing_qnet_max             =   3.4166333007812E+02
(PID.TID 0000.0001) %MON forcing_qnet_min             =  -1.7103829345703E+02
(PID.TID 0000.0001) %MON forcing_qnet_mean            =  -1.2625213981184E+01
(PID.TID 0000.0001) %MON forcing_qnet_sd              =   7.1234414492605E+01
(PID.TID 0000.0001) %MON forcing_qnet_del2            =   9.1767530219150E-01
(PID.TID 0000.0001) %MON forcing_qsw_max              =   0.0000000000000E+00
(PID.TID 0000.0001) %MON forcing_qsw_min              =   0.0000000000000E+00
(PID.TID 0000.0001) %MON forcing_qsw_mean             =   0.0000000000000E+00
(PID.TID 0000.0001) %MON forcing_qsw_sd               =   0.0000000000000E+00
(PID.TID 0000.0001) %MON forcing_qsw_del2             =   0.0000000000000E+00
(PID.TID 0000.0001) %MON forcing_empmr_max            =   6.9246974021553E-05
(PID.TID 0000.0001) %MON forcing_empmr_min            =  -7.4091350654726E-05
(PID.TID 0000.0001) %MON forcing_empmr_mean           =   8.6486939466325E-07
(PID.TID 0000.0001) %MON forcing_empmr_sd             =   2.7477668813451E-05
(PID.TID 0000.0001) %MON forcing_empmr_del2           =   3.5358321320213E-07
(PID.TID 0000.0001) %MON forcing_fu_max               =   3.1258164048195E-01
(PID.TID 0000.0001) %MON forcing_fu_min               =  -2.4804012775421E-01
(PID.TID 0000.0001) %MON forcing_fu_mean              =   1.8195939153386E-02
(PID.TID 0000.0001) %MON forcing_fu_sd                =   9.3365690565339E-02
(PID.TID 0000.0001) %MON forcing_fu_del2              =   7.1304989393077E-04
(PID.TID 0000.0001) %MON forcing_fv_max               =   1.6746481135488E-01
(PID.TID 0000.0001) %MON forcing_fv_min               =  -1.9076303839684E-01
(PID.TID 0000.0001) %MON forcing_fv_mean              =  -7.2792950407772E-03
(PID.TID 0000.0001) %MON forcing_fv_sd                =   4.3351289204055E-02
(PID.TID 0000.0001) %MON forcing_fv_del2              =   5.0024732875636E-04
(PID.TID 0000.0001) %MON trAdv_CFL_u_max              =   4.8962911465511E-02
(PID.TID 0000.0001) %MON trAdv_CFL_v_max              =   2.7307757083351E-02
(PID.TID 0000.0001) %MON trAdv_CFL_w_max              =   3.8250204272827E-02
(PID.TID 0000.0001) %MON advcfl_uvel_max              =   4.8671283393825E-02
(PID.TID 0000.0001) %MON advcfl_vvel_max              =   2.7084932816681E-02
(PID.TID 0000.0001) %MON advcfl_wvel_max              =   4.4377240201506E-02
(PID.TID 0000.0001) %MON advcfl_W_hf_max              =   5.3886648816114E-02
(PID.TID 0000.0001) %MON pe_b_mean                    =   4.7576884025654E-04
(PID.TID 0000.0001) %MON ke_max                       =   1.7037495641572E-02
(PID.TID 0000.0001) %MON ke_mean                      =   1.2381891554252E-04
(PID.TID 0000.0001) %MON ke_vol                       =   1.3226782436723E+18
(PID.TID 0000.0001) %MON vort_r_min                   =  -4.6016737473459E-07
(PID.TID 0000.0001) %MON vort_r_max                   =   3.9892266291786E-07
(PID.TID 0000.0001) %MON vort_a_mean                  =  -2.5274807019968E-05
(PID.TID 0000.0001) %MON vort_a_sd                    =   7.3604662490567E-05
(PID.TID 0000.0001) %MON vort_p_mean                  =  -3.1845655323852E-05
(PID.TID 0000.0001) %MON vort_p_sd                    =   1.3162477737038E-04
(PID.TID 0000.0001) %MON surfExpan_theta_mean         =   3.6165860799269E-07
(PID.TID 0000.0001) %MON surfExpan_salt_mean          =  -3.5020613290639E-08
(PID.TID 0000.0001) // =======================================================
(PID.TID 0000.0001) // End MONITOR dynamic field statistics
(PID.TID 0000.0001) // =======================================================
 EXTERNAL_FIELDS_LOAD,        52 : iP,iLd,i0,i1=    2    3    2    3 ; Wght=  0.7666666667  0.2333333333
 EXTERNAL_FIELDS_LOAD: (fu0,1),fu,fv= -1.4435E-02 -2.7199E-02 -1.7413E-02 -1.3655E-02
 EXTERNAL_FIELDS_LOAD: SST,SSS,Q,E-P= -4.5067E-01  3.4458E+01  2.3463E+02  8.5414E-06
DEBUG_STATS_RL:          Uvel (THERMODYNAMICS)  min= -1.25662142489805E-01
DEBUG_STATS_RL:          Uvel (THERMODYNAMICS)  max=  1.86169831233076E-01
DEBUG_STATS_RL:          Uvel (THERMODYNAMICS) mean=  5.57779807669315E-03
DEBUG_STATS_RL:          Uvel (THERMODYNAMICS) S.D.=  2.30891794052657E-02
DEBUG_STATS_RL:          Vvel (THERMODYNAMICS)  min= -9.29965687743574E-02
DEBUG_STATS_RL:          Vvel (THERMODYNAMICS)  max=  1.39408999836497E-01
DEBUG_STATS_RL:          Vvel (THERMODYNAMICS) mean=  1.59506328106601E-03
DEBUG_STATS_RL:          Vvel (THERMODYNAMICS) S.D.=  1.38938127592418E-02
DEBUG_STATS_RL:          Wvel (THERMODYNAMICS)  min= -7.13466048149154E-05
DEBUG_STATS_RL:          Wvel (THERMODYNAMICS)  max=  1.43060391524938E-04
DEBUG_STATS_RL:          Wvel (THERMODYNAMICS) mean=  6.20851445843168E-08
DEBUG_STATS_RL:          Wvel (THERMODYNAMICS) S.D.=  1.03311473013824E-05
DEBUG_STATS_RL:         Theta (THERMODYNAMICS)  min= -1.97870252850643E+00
DEBUG_STATS_RL:         Theta (THERMODYNAMICS)  max=  3.03946938942006E+01
DEBUG_STATS_RL:         Theta (THERMODYNAMICS) mean=  3.21882630915696E+00
DEBUG_STATS_RL:         Theta (THERMODYNAMICS) S.D.=  5.87352929853719E+00
DEBUG_STATS_RL:          Salt (THERMODYNAMICS)  min= -2.25514051876985E-17
DEBUG_STATS_RL:          Salt (THERMODYNAMICS)  max=  3.74619133038756E+01
DEBUG_STATS_RL:          Salt (THERMODYNAMICS) mean=  1.88449393175745E+01
DEBUG_STATS_RL:          Salt (THERMODYNAMICS) S.D.=  1.73004573647061E+01
DEBUG_STATS_RL:         GtNm1 (THERMODYNAMICS)  min= -5.24840100542142E-06
DEBUG_STATS_RL:         GtNm1 (THERMODYNAMICS)  max=  2.70746406689703E-06
DEBUG_STATS_RL:         GtNm1 (THERMODYNAMICS) mean=  3.03610851104105E-09
DEBUG_STATS_RL:         GtNm1 (THERMODYNAMICS) S.D.=  1.84176885890872E-07
DEBUG_STATS_RL:         GsNm1 (THERMODYNAMICS)  min= -5.22877216365017E-07
DEBUG_STATS_RL:         GsNm1 (THERMODYNAMICS)  max=  3.34477795050446E-07
DEBUG_STATS_RL:         GsNm1 (THERMODYNAMICS) mean= -7.59807924971097E-11
DEBUG_STATS_RL:         GsNm1 (THERMODYNAMICS) S.D.=  1.83366446376078E-08
DEBUG_STATS_RL:                EtaN (DYNAMICS)  min= -1.87442271847519E+00
DEBUG_STATS_RL:                EtaN (DYNAMICS)  max=  8.53873662443099E-01
DEBUG_STATS_RL:                EtaN (DYNAMICS) mean= -1.80490380817782E-01
DEBUG_STATS_RL:                EtaN (DYNAMICS) S.D.=  7.02759558134764E-01
DEBUG_STATS_RL:                Uvel (DYNAMICS)  min= -1.25662142489805E-01
DEBUG_STATS_RL:                Uvel (DYNAMICS)  max=  1.86169831233076E-01
DEBUG_STATS_RL:                Uvel (DYNAMICS) mean=  5.57779807669315E-03
DEBUG_STATS_RL:                Uvel (DYNAMICS) S.D.=  2.30891794052657E-02
DEBUG_STATS_RL:                Vvel (DYNAMICS)  min= -9.29965687743574E-02
DEBUG_STATS_RL:                Vvel (DYNAMICS)  max=  1.39408999836497E-01
DEBUG_STATS_RL:                Vvel (DYNAMICS) mean=  1.59506328106601E-03
DEBUG_STATS_RL:                Vvel (DYNAMICS) S.D.=  1.38938127592418E-02
DEBUG_STATS_RL:                Wvel (DYNAMICS)  min= -7.13466048149154E-05
DEBUG_STATS_RL:                Wvel (DYNAMICS)  max=  1.43060391524938E-04
DEBUG_STATS_RL:                Wvel (DYNAMICS) mean=  6.20851445843168E-08
DEBUG_STATS_RL:                Wvel (DYNAMICS) S.D.=  1.03311473013824E-05
DEBUG_STATS_RL:               Theta (DYNAMICS)  min= -1.97870252850643E+00
DEBUG_STATS_RL:               Theta (DYNAMICS)  max=  3.03946938942006E+01
DEBUG_STATS_RL:               Theta (DYNAMICS) mean=  3.21882630915696E+00
DEBUG_STATS_RL:               Theta (DYNAMICS) S.D.=  5.87352929853719E+00
DEBUG_STATS_RL:                Salt (DYNAMICS)  min= -2.25514051876985E-17
DEBUG_STATS_RL:                Salt (DYNAMICS)  max=  3.74619133038756E+01
DEBUG_STATS_RL:                Salt (DYNAMICS) mean=  1.88449393175745E+01
DEBUG_STATS_RL:                Salt (DYNAMICS) S.D.=  1.73004573647061E+01
DEBUG_STATS_RL:                  Gu (DYNAMICS)  min= -1.25517166403495E-01
DEBUG_STATS_RL:                  Gu (DYNAMICS)  max=  1.88510391714926E-01
DEBUG_STATS_RL:                  Gu (DYNAMICS) mean=  5.44679708211543E-03
DEBUG_STATS_RL:                  Gu (DYNAMICS) S.D.=  2.30211979727706E-02
DEBUG_STATS_RL:                  Gv (DYNAMICS)  min= -9.11344712770421E-02
DEBUG_STATS_RL:                  Gv (DYNAMICS)  max=  1.42373177271429E-01
DEBUG_STATS_RL:                  Gv (DYNAMICS) mean=  4.09743308396812E-03
DEBUG_STATS_RL:                  Gv (DYNAMICS) S.D.=  1.55191446810255E-02
DEBUG_STATS_RL:               GuNm1 (DYNAMICS)  min= -9.57630036669561E-06
DEBUG_STATS_RL:               GuNm1 (DYNAMICS)  max=  9.00745398376737E-06
DEBUG_STATS_RL:               GuNm1 (DYNAMICS) mean= -5.48188890701894E-09
DEBUG_STATS_RL:               GuNm1 (DYNAMICS) S.D.=  1.18278101694968E-06
DEBUG_STATS_RL:               GvNm1 (DYNAMICS)  min= -9.58099987565600E-06
DEBUG_STATS_RL:               GvNm1 (DYNAMICS)  max=  1.63155287678453E-05
DEBUG_STATS_RL:               GvNm1 (DYNAMICS) mean=  7.44955097353629E-07
DEBUG_STATS_RL:               GvNm1 (DYNAMICS) S.D.=  2.61517762406748E-06
DEBUG_STATS_RL:               GtNm1 (DYNAMICS)  min= -5.24840100542142E-06
DEBUG_STATS_RL:               GtNm1 (DYNAMICS)  max=  2.70746406689703E-06
DEBUG_STATS_RL:               GtNm1 (DYNAMICS) mean=  3.03610851104105E-09
DEBUG_STATS_RL:               GtNm1 (DYNAMICS) S.D.=  1.84176885890872E-07
DEBUG_STATS_RL:               GsNm1 (DYNAMICS)  min= -5.22877216365017E-07
DEBUG_STATS_RL:               GsNm1 (DYNAMICS)  max=  3.34477795050446E-07
DEBUG_STATS_RL:               GsNm1 (DYNAMICS) mean= -7.59807924971097E-11
DEBUG_STATS_RL:               GsNm1 (DYNAMICS) S.D.=  1.83366446376078E-08
DEBUG_STATS_RL:    cg2d_b (SOLVE_FOR_PRESSURE)  min= -2.04612799189167E+04
DEBUG_STATS_RL:    cg2d_b (SOLVE_FOR_PRESSURE)  max=  2.59158928458588E+04
DEBUG_STATS_RL:    cg2d_b (SOLVE_FOR_PRESSURE) mean=  3.82736654277780E+00
DEBUG_STATS_RL:    cg2d_b (SOLVE_FOR_PRESSURE) S.D.=  3.76582311856970E+03
 cg2d: Sum(rhs),rhsMax =   3.41888801564005E-01  1.70222522999385E+00
(PID.TID 0000.0001)  cg2d: iter=     1 ; resid.=  8.06249387807230E-02
(PID.TID 0000.0001)  cg2d: iter=     2 ; resid.=  5.11803621331770E-02
(PID.TID 0000.0001)  cg2d: iter=     3 ; resid.=  6.01893557221068E-02
(PID.TID 0000.0001)  cg2d: iter=     4 ; resid.=  5.98869548031198E-02
(PID.TID 0000.0001)  cg2d: iter=     5 ; resid.=  5.41880026451582E-02
(PID.TID 0000.0001)  cg2d: iter=     6 ; resid.=  4.74228119726168E-02
(PID.TID 0000.0001)  cg2d: iter=     7 ; resid.=  3.77068228534026E-02
(PID.TID 0000.0001)  cg2d: iter=     8 ; resid.=  2.81451639135617E-02
(PID.TID 0000.0001)  cg2d: iter=     9 ; resid.=  2.14058835455637E-02
(PID.TID 0000.0001)  cg2d: iter=    10 ; resid.=  1.74697971477025E-02
(PID.TID 0000.0001)  cg2d: iter=    11 ; resid.=  1.39515079291933E-02
(PID.TID 0000.0001)  cg2d: iter=    12 ; resid.=  1.11337545645906E-02
(PID.TID 0000.0001)  cg2d: iter=    13 ; resid.=  8.68104701409929E-03
(PID.TID 0000.0001)  cg2d: iter=    14 ; resid.=  7.71590526604107E-03
(PID.TID 0000.0001)  cg2d: iter=    15 ; resid.=  7.10900335042479E-03
(PID.TID 0000.0001)  cg2d: iter=    16 ; resid.=  5.77410214712555E-03
(PID.TID 0000.0001)  cg2d: iter=    17 ; resid.=  5.15120928840990E-03
(PID.TID 0000.0001)  cg2d: iter=    18 ; resid.=  4.75009060049795E-03
(PID.TID 0000.0001)  cg2d: iter=    19 ; resid.=  3.89253227994130E-03
(PID.TID 0000.0001)  cg2d: iter=    20 ; resid.=  2.90632592601758E-03
(PID.TID 0000.0001)  cg2d: iter=    21 ; resid.=  2.26600181222260E-03
(PID.TID 0000.0001)  cg2d: iter=    22 ; resid.=  2.03441032890067E-03
(PID.TID 0000.0001)  cg2d: iter=    23 ; resid.=  1.69906114592971E-03
(PID.TID 0000.0001)  cg2d: iter=    24 ; resid.=  1.34619113251361E-03
(PID.TID 0000.0001)  cg2d: iter=    25 ; resid.=  1.11165445947718E-03
(PID.TID 0000.0001)  cg2d: iter=    26 ; resid.=  8.82214525007129E-04
(PID.TID 0000.0001)  cg2d: iter=    27 ; resid.=  7.25956850315956E-04
(PID.TID 0000.0001)  cg2d: iter=    28 ; resid.=  6.22598559899137E-04
(PID.TID 0000.0001)  cg2d: iter=    29 ; resid.=  4.98578657974851E-04
(PID.TID 0000.0001)  cg2d: iter=    30 ; resid.=  3.82144735518160E-04
(PID.TID 0000.0001)  cg2d: iter=    31 ; resid.=  3.19805566400448E-04
(PID.TID 0000.0001)  cg2d: iter=    32 ; resid.=  2.54805959461105E-04
(PID.TID 0000.0001)  cg2d: iter=    33 ; resid.=  2.00530812987395E-04
(PID.TID 0000.0001)  cg2d: iter=    34 ; resid.=  1.63892440077849E-04
(PID.TID 0000.0001)  cg2d: iter=    35 ; resid.=  1.25993796635721E-04
(PID.TID 0000.0001)  cg2d: iter=    36 ; resid.=  1.00578129083503E-04
(PID.TID 0000.0001)  cg2d: iter=    37 ; resid.=  8.53732721079546E-05
(PID.TID 0000.0001)  cg2d: iter=    38 ; resid.=  7.92998916000165E-05
(PID.TID 0000.0001)  cg2d: iter=    39 ; resid.=  6.47181145695922E-05
(PID.TID 0000.0001)  cg2d: iter=    40 ; resid.=  5.23133101878369E-05
(PID.TID 0000.0001)  cg2d: iter=    41 ; resid.=  4.15408644541305E-05
(PID.TID 0000.0001)  cg2d: iter=    42 ; resid.=  3.54320066067337E-05
(PID.TID 0000.0001)  cg2d: iter=    43 ; resid.=  3.10888152130077E-05
(PID.TID 0000.0001)  cg2d: iter=    44 ; resid.=  2.51492248098874E-05
(PID.TID 0000.0001)  cg2d: iter=    45 ; resid.=  1.88958063052163E-05
(PID.TID 0000.0001)  cg2d: iter=    46 ; resid.=  1.44891862719148E-05
(PID.TID 0000.0001)  cg2d: iter=    47 ; resid.=  1.17717727902868E-05
(PID.TID 0000.0001)  cg2d: iter=    48 ; resid.=  1.00388902468397E-05
(PID.TID 0000.0001)  cg2d: iter=    49 ; resid.=  8.12651446883055E-06
(PID.TID 0000.0001)  cg2d: iter=    50 ; resid.=  6.91097761018306E-06
(PID.TID 0000.0001)  cg2d: iter=    51 ; resid.=  5.95576863829168E-06
(PID.TID 0000.0001)  cg2d: iter=    52 ; resid.=  4.96554991581733E-06
(PID.TID 0000.0001)  cg2d: iter=    53 ; resid.=  4.40473871616869E-06
(PID.TID 0000.0001)  cg2d: iter=    54 ; resid.=  3.70754745963383E-06
(PID.TID 0000.0001)  cg2d: iter=    55 ; resid.=  2.88551555907768E-06
(PID.TID 0000.0001)  cg2d: iter=    56 ; resid.=  2.50858251178953E-06
(PID.TID 0000.0001)  cg2d: iter=    57 ; resid.=  2.29286272283170E-06
(PID.TID 0000.0001)  cg2d: iter=    58 ; resid.=  1.94485246344040E-06
(PID.TID 0000.0001)  cg2d: iter=    59 ; resid.=  1.55472800755321E-06
(PID.TID 0000.0001)  cg2d: iter=    60 ; resid.=  1.25337756828598E-06
(PID.TID 0000.0001)  cg2d: iter=    61 ; resid.=  1.09992433977793E-06
(PID.TID 0000.0001)  cg2d: iter=    62 ; resid.=  9.27243613749176E-07
(PID.TID 0000.0001)  cg2d: iter=    63 ; resid.=  7.10175731588137E-07
(PID.TID 0000.0001)  cg2d: iter=    64 ; resid.=  6.03498719971489E-07
(PID.TID 0000.0001)  cg2d: iter=    65 ; resid.=  5.06975869083955E-07
(PID.TID 0000.0001)  cg2d: iter=    66 ; resid.=  4.18095846355096E-07
(PID.TID 0000.0001)  cg2d: iter=    67 ; resid.=  3.26243318301350E-07
(PID.TID 0000.0001)  cg2d: iter=    68 ; resid.=  2.51013327767507E-07
(PID.TID 0000.0001)  cg2d: iter=    69 ; resid.=  2.14178565398314E-07
(PID.TID 0000.0001)  cg2d: iter=    70 ; resid.=  1.97857106399186E-07
(PID.TID 0000.0001)  cg2d: iter=    71 ; resid.=  1.77875073460401E-07
(PID.TID 0000.0001)  cg2d: iter=    72 ; resid.=  1.58570441271859E-07
(PID.TID 0000.0001)  cg2d: iter=    73 ; resid.=  1.38917702571058E-07
(PID.TID 0000.0001)  cg2d: iter=    74 ; resid.=  1.21962201988328E-07
(PID.TID 0000.0001)  cg2d: iter=    75 ; resid.=  1.09430058475594E-07
(PID.TID 0000.0001)  cg2d: iter=    76 ; resid.=  9.75301590917781E-08
(PID.TID 0000.0001)  cg2d: iter=    77 ; resid.=  7.46802430155843E-08
(PID.TID 0000.0001)  cg2d: iter=    78 ; resid.=  5.47037322385947E-08
(PID.TID 0000.0001)  cg2d: iter=    79 ; resid.=  4.45010072013243E-08
(PID.TID 0000.0001)  cg2d: iter=    80 ; resid.=  3.71680538759997E-08
(PID.TID 0000.0001)  cg2d: iter=    81 ; resid.=  2.86353952292723E-08
(PID.TID 0000.0001)  cg2d: iter=    82 ; resid.=  2.08763077907537E-08
(PID.TID 0000.0001)  cg2d: iter=    83 ; resid.=  1.59931801879505E-08
(PID.TID 0000.0001)  cg2d: iter=    84 ; resid.=  1.31207135244544E-08
(PID.TID 0000.0001)  cg2d: iter=    85 ; resid.=  1.04014190621185E-08
(PID.TID 0000.0001)  cg2d: iter=    86 ; resid.=  7.75019706050609E-09
(PID.TID 0000.0001)  cg2d: iter=    87 ; resid.=  5.82171935137503E-09
(PID.TID 0000.0001)  cg2d: iter=    88 ; resid.=  4.43933481546008E-09
(PID.TID 0000.0001)  cg2d: iter=    89 ; resid.=  4.02284007105330E-09
(PID.TID 0000.0001)  cg2d: iter=    90 ; resid.=  3.66306600495407E-09
(PID.TID 0000.0001)  cg2d: iter=    91 ; resid.=  2.92252363229021E-09
(PID.TID 0000.0001)  cg2d: iter=    92 ; resid.=  1.99477762985223E-09
(PID.TID 0000.0001)  cg2d: iter=    93 ; resid.=  1.31845432713714E-09
(PID.TID 0000.0001)  cg2d: iter=    94 ; resid.=  1.04697947812079E-09
(PID.TID 0000.0001)  cg2d: iter=    95 ; resid.=  9.51244641290398E-10
(PID.TID 0000.0001)  cg2d: iter=    96 ; resid.=  7.75873012544776E-10
(PID.TID 0000.0001)  cg2d: iter=    97 ; resid.=  5.48900765516562E-10
(PID.TID 0000.0001)  cg2d: iter=    98 ; resid.=  3.92513284962348E-10
(PID.TID 0000.0001)  cg2d: iter=    99 ; resid.=  3.33517133399591E-10
(PID.TID 0000.0001)  cg2d: iter=   100 ; resid.=  3.25630186465930E-10
(PID.TID 0000.0001)  cg2d: iter=   101 ; resid.=  2.93565343090235E-10
(PID.TID 0000.0001)  cg2d: iter=   102 ; resid.=  2.23827065655882E-10
(PID.TID 0000.0001)  cg2d: iter=   103 ; resid.=  1.70126619430098E-10
(PID.TID 0000.0001)  cg2d: iter=   104 ; resid.=  1.48239879060403E-10
(PID.TID 0000.0001)  cg2d: iter=   105 ; resid.=  1.37674611323638E-10
(PID.TID 0000.0001)  cg2d: iter=   106 ; resid.=  1.11676007752422E-10
(PID.TID 0000.0001)  cg2d: iter=   107 ; resid.=  7.61793746527672E-11
(PID.TID 0000.0001)  cg2d: iter=   108 ; resid.=  5.44988950265271E-11
(PID.TID 0000.0001)  cg2d: iter=   109 ; resid.=  4.46868122739423E-11
(PID.TID 0000.0001)  cg2d: iter=   110 ; resid.=  3.98105373576940E-11
(PID.TID 0000.0001)  cg2d: iter=   111 ; resid.=  2.84689635823159E-11
(PID.TID 0000.0001)  cg2d: iter=   112 ; resid.=  1.96532074802428E-11
(PID.TID 0000.0001)  cg2d: iter=   113 ; resid.=  1.39858978306388E-11
(PID.TID 0000.0001)  cg2d: iter=   114 ; resid.=  1.09835755624253E-11
(PID.TID 0000.0001)  cg2d: iter=   115 ; resid.=  9.10775635428750E-12
(PID.TID 0000.0001)  cg2d: iter=   116 ; resid.=  7.11620310160658E-12
(PID.TID 0000.0001)  cg2d: iter=   117 ; resid.=  5.21984023783120E-12
(PID.TID 0000.0001)  cg2d: iter=   118 ; resid.=  3.78238114817426E-12
(PID.TID 0000.0001)  cg2d: iter=   119 ; resid.=  3.25317974613339E-12
(PID.TID 0000.0001)  cg2d: iter=   120 ; resid.=  2.86816817020215E-12
(PID.TID 0000.0001)  cg2d: iter=   121 ; resid.=  2.16083460794180E-12
(PID.TID 0000.0001)  cg2d: iter=   122 ; resid.=  1.48997929304511E-12
(PID.TID 0000.0001)  cg2d: iter=   123 ; resid.=  1.11194694070698E-12
(PID.TID 0000.0001)  cg2d: iter=   124 ; resid.=  9.20556203344403E-13
(PID.TID 0000.0001)  cg2d: iter=   125 ; resid.=  7.39778558312359E-13
(PID.TID 0000.0001)  cg2d: iter=   126 ; resid.=  5.22116576363694E-13
(PID.TID 0000.0001)  cg2d: iter=   127 ; resid.=  3.14461611718070E-13
(PID.TID 0000.0001)  cg2d: iter=   128 ; resid.=  1.80231102979861E-13
(PID.TID 0000.0001)  cg2d: iter=   129 ; resid.=  1.17993314185922E-13
(PID.TID 0000.0001)  cg2d: iter=   130 ; resid.=  8.92131468530273E-14
DEBUG_STATS_RL:    cg2d_x (SOLVE_FOR_PRESSURE)  min= -1.85340973755668E+01
DEBUG_STATS_RL:    cg2d_x (SOLVE_FOR_PRESSURE)  max=  8.47133064379193E+00
DEBUG_STATS_RL:    cg2d_x (SOLVE_FOR_PRESSURE) mean= -1.78376970608048E+00
DEBUG_STATS_RL:    cg2d_x (SOLVE_FOR_PRESSURE) S.D.=  6.95450484055156E+00
(PID.TID 0000.0001)      cg2d_init_res =   2.73324271078529E-01
(PID.TID 0000.0001)      cg2d_iters(min,last) =      -1     130
(PID.TID 0000.0001)      cg2d_last_res =   8.92131468530273E-14
(PID.TID 0000.0001) // =======================================================
(PID.TID 0000.0001) // Begin MONITOR dynamic field statistics
(PID.TID 0000.0001) // =======================================================
(PID.TID 0000.0001) %MON time_tsnumber                =                    53
(PID.TID 0000.0001) %MON time_secondsf                =   4.5792000000000E+06
(PID.TID 0000.0001) %MON dynstat_eta_max              =   8.6354033066171E-01
(PID.TID 0000.0001) %MON dynstat_eta_min              =  -1.8893065622393E+00
(PID.TID 0000.0001) %MON dynstat_eta_mean             =  -3.9933824096048E-03
(PID.TID 0000.0001) %MON dynstat_eta_sd               =   6.1605475644201E-01
(PID.TID 0000.0001) %MON dynstat_eta_del2             =   2.3001508169820E-03
(PID.TID 0000.0001) %MON dynstat_uvel_max             =   1.8307100469710E-01
(PID.TID 0000.0001) %MON dynstat_uvel_min             =  -1.2587916667519E-01
(PID.TID 0000.0001) %MON dynstat_uvel_mean            =   2.2645680833038E-03
(PID.TID 0000.0001) %MON dynstat_uvel_sd              =   1.3868489168890E-02
(PID.TID 0000.0001) %MON dynstat_uvel_del2            =   8.2436706092759E-05
(PID.TID 0000.0001) %MON dynstat_vvel_max             =   1.4096393296941E-01
(PID.TID 0000.0001) %MON dynstat_vvel_min             =  -9.0454871612559E-02
(PID.TID 0000.0001) %MON dynstat_vvel_mean            =  -1.3172764341226E-05
(PID.TID 0000.0001) %MON dynstat_vvel_sd              =   8.3323563667123E-03
(PID.TID 0000.0001) %MON dynstat_vvel_del2            =   7.2079246240501E-05
(PID.TID 0000.0001) %MON dynstat_wvel_max             =   1.3896021906906E-04
(PID.TID 0000.0001) %MON dynstat_wvel_min             =  -6.6703206231198E-05
(PID.TID 0000.0001) %MON dynstat_wvel_mean            =  -3.5552230469075E-25
(PID.TID 0000.0001) %MON dynstat_wvel_sd              =   1.1442535025308E-05
(PID.TID 0000.0001) %MON dynstat_wvel_del2            =   1.2022929317370E-07
(PID.TID 0000.0001) %MON dynstat_theta_max            =   3.0394693894201E+01
(PID.TID 0000.0001) %MON dynstat_theta_min            =  -1.9787025285064E+00
(PID.TID 0000.0001) %MON dynstat_theta_mean           =   3.6228808978640E+00
(PID.TID 0000.0001) %MON dynstat_theta_sd             =   4.4220645524110E+00
(PID.TID 0000.0001) %MON dynstat_theta_del2           =   4.8125700058566E-03
(PID.TID 0000.0001) %MON dynstat_salt_max             =   3.7461913303876E+01
(PID.TID 0000.0001) %MON dynstat_salt_min             =   2.9856726629513E+01
(PID.TID 0000.0001) %MON dynstat_salt_mean            =   3.4717991686498E+01
(PID.TID 0000.0001) %MON dynstat_salt_sd              =   2.9640702519482E-01
(PID.TID 0000.0001) %MON dynstat_salt_del2            =   9.8752309419342E-04
(PID.TID 0000.0001) %MON dynstat_sst_max              =   3.0394693894201E+01
(PID.TID 0000.0001) %MON dynstat_sst_min              =  -1.9787025285064E+00
(PID.TID 0000.0001) %MON dynstat_sst_mean             =   1.8950009748252E+01
(PID.TID 0000.0001) %MON dynstat_sst_sd               =   9.0315939905061E+00
(PID.TID 0000.0001) %MON dynstat_sst_del2             =   2.7574811081929E-02
(PID.TID 0000.0001) %MON dynstat_sss_max              =   3.7442265992653E+01
(PID.TID 0000.0001) %MON dynstat_sss_min              =   2.9856726629513E+01
(PID.TID 0000.0001) %MON dynstat_sss_mean             =   3.4842744891456E+01
(PID.TID 0000.0001) %MON dynstat_sss_sd               =   9.7859269663802E-01
(PID.TID 0000.0001) %MON dynstat_sss_del2             =   7.9273139912049E-03
(PID.TID 0000.0001) %MON forcing_qnet_max             =   3.3886517842611E+02
(PID.TID 0000.0001) %MON forcing_qnet_min             =  -1.7073901418050E+02
(PID.TID 0000.0001) %MON forcing_qnet_mean            =  -1.2401874481557E+01
(PID.TID 0000.0001) %MON forcing_qnet_sd              =   6.9891135718298E+01
(PID.TID 0000.0001) %MON forcing_qnet_del2            =   9.1294827007943E-01
(PID.TID 0000.0001) %MON forcing_qsw_max              =   0.0000000000000E+00
(PID.TID 0000.0001) %MON forcing_qsw_min              =   0.0000000000000E+00
(PID.TID 0000.0001) %MON forcing_qsw_mean             =   0.0000000000000E+00
(PID.TID 0000.0001) %MON forcing_qsw_sd               =   0.0000000000000E+00
(PID.TID 0000.0001) %MON forcing_qsw_del2             =   0.0000000000000E+00
(PID.TID 0000.0001) %MON forcing_empmr_max            =   6.9241217678003E-05
(PID.TID 0000.0001) %MON forcing_empmr_min            =  -7.4083286942065E-05
(PID.TID 0000.0001) %MON forcing_empmr_mean           =   8.5177946378889E-07
(PID.TID 0000.0001) %MON forcing_empmr_sd             =   2.7401269076073E-05
(PID.TID 0000.0001) %MON forcing_empmr_del2           =   3.5339193351951E-07
(PID.TID 0000.0001) %MON forcing_fu_max               =   3.1390599310398E-01
(PID.TID 0000.0001) %MON forcing_fu_min               =  -2.5342475722233E-01
(PID.TID 0000.0001) %MON forcing_fu_mean              =   1.8290138742845E-02
(PID.TID 0000.0001) %MON forcing_fu_sd                =   9.3499658141920E-02
(PID.TID 0000.0001) %MON forcing_fu_del2              =   7.1000949682168E-04
(PID.TID 0000.0001) %MON forcing_fv_max               =   1.6197121615211E-01
(PID.TID 0000.0001) %MON forcing_fv_min               =  -1.8927700221539E-01
(PID.TID 0000.0001) %MON forcing_fv_mean              =  -7.2897233907466E-03
(PID.TID 0000.0001) %MON forcing_fv_sd                =   4.3122711947279E-02
(PID.TID 0000.0001) %MON forcing_fv_del2              =   4.9479609729253E-04
(PID.TID 0000.0001) %MON trAdv_CFL_u_max              =   4.8681168879585E-02
(PID.TID 0000.0001) %MON trAdv_CFL_v_max              =   2.6907224176502E-02
(PID.TID 0000.0001) %MON trAdv_CFL_w_max              =   3.7720654171280E-02
(PID.TID 0000.0001) %MON advcfl_uvel_max              =   4.7861142118400E-02
(PID.TID 0000.0001) %MON advcfl_vvel_max              =   2.7387031386276E-02
(PID.TID 0000.0001) %MON advcfl_wvel_max              =   4.3119045574008E-02
(PID.TID 0000.0001) %MON advcfl_W_hf_max              =   5.2358841054153E-02
(PID.TID 0000.0001) %MON pe_b_mean                    =   4.8566642210297E-04
(PID.TID 0000.0001) %MON ke_max                       =   1.6531569259490E-02
(PID.TID 0000.0001) %MON ke_mean                      =   1.2087997105066E-04
(PID.TID 0000.0001) %MON ke_vol                       =   1.3226782436723E+18
(PID.TID 0000.0001) %MON vort_r_min                   =  -4.5264167274379E-07
(PID.TID 0000.0001) %MON vort_r_max                   =   3.9381848399713E-07
(PID.TID 0000.0001) %MON vort_a_mean                  =  -2.5274807013376E-05
(PID.TID 0000.0001) %MON vort_a_sd                    =   7.3604665607369E-05
(PID.TID 0000.0001) %MON vort_p_mean                  =  -3.1845655315546E-05
(PID.TID 0000.0001) %MON vort_p_sd                    =   1.3162483799182E-04
(PID.TID 0000.0001) %MON surfExpan_theta_mean         =   3.5691991371533E-07
(PID.TID 0000.0001) %MON surfExpan_salt_mean          =  -3.8374597096646E-08
(PID.TID 0000.0001) // =======================================================
(PID.TID 0000.0001) // End MONITOR dynamic field statistics
(PID.TID 0000.0001) // =======================================================
 EXTERNAL_FIELDS_LOAD,        53 : iP,iLd,i0,i1=    2    3    2    3 ; Wght=  0.7333333333  0.2666666667
 EXTERNAL_FIELDS_LOAD: (fu0,1),fu,fv= -1.4435E-02 -2.7199E-02 -1.7838E-02 -1.3087E-02
 EXTERNAL_FIELDS_LOAD: SST,SSS,Q,E-P= -4.3907E-01  3.4463E+01  2.3379E+02  8.5648E-06
DEBUG_STATS_RL:          Uvel (THERMODYNAMICS)  min= -1.25879166675195E-01
DEBUG_STATS_RL:          Uvel (THERMODYNAMICS)  max=  1.83071004697100E-01
DEBUG_STATS_RL:          Uvel (THERMODYNAMICS) mean=  5.53075594925629E-03
DEBUG_STATS_RL:          Uvel (THERMODYNAMICS) S.D.=  2.26450359992592E-02
DEBUG_STATS_RL:          Vvel (THERMODYNAMICS)  min= -9.04548716125587E-02
DEBUG_STATS_RL:          Vvel (THERMODYNAMICS)  max=  1.40963932969406E-01
DEBUG_STATS_RL:          Vvel (THERMODYNAMICS) mean=  1.57306569139552E-03
DEBUG_STATS_RL:          Vvel (THERMODYNAMICS) S.D.=  1.38517451210004E-02
DEBUG_STATS_RL:          Wvel (THERMODYNAMICS)  min= -6.67032062311979E-05
DEBUG_STATS_RL:          Wvel (THERMODYNAMICS)  max=  1.38960219069061E-04
DEBUG_STATS_RL:          Wvel (THERMODYNAMICS) mean=  6.20754751852122E-08
DEBUG_STATS_RL:          Wvel (THERMODYNAMICS) S.D.=  1.01722569204046E-05
DEBUG_STATS_RL:         Theta (THERMODYNAMICS)  min= -1.97713063989806E+00
DEBUG_STATS_RL:         Theta (THERMODYNAMICS)  max=  3.04021220185595E+01
DEBUG_STATS_RL:         Theta (THERMODYNAMICS) mean=  3.21893224974120E+00
DEBUG_STATS_RL:         Theta (THERMODYNAMICS) S.D.=  5.87409293605893E+00
DEBUG_STATS_RL:          Salt (THERMODYNAMICS)  min= -2.25514051876985E-17
DEBUG_STATS_RL:          Salt (THERMODYNAMICS)  max=  3.74628219043989E+01
DEBUG_STATS_RL:          Salt (THERMODYNAMICS) mean=  1.88449364491298E+01
DEBUG_STATS_RL:          Salt (THERMODYNAMICS) S.D.=  1.73004551558259E+01
DEBUG_STATS_RL:         GtNm1 (THERMODYNAMICS)  min= -5.64724717656713E-06
DEBUG_STATS_RL:         GtNm1 (THERMODYNAMICS)  max=  2.97678762589803E-06
DEBUG_STATS_RL:         GtNm1 (THERMODYNAMICS) mean=  2.48900044747481E-09
DEBUG_STATS_RL:         GtNm1 (THERMODYNAMICS) S.D.=  1.83194200282171E-07
DEBUG_STATS_RL:         GsNm1 (THERMODYNAMICS)  min= -5.58420722020630E-07
DEBUG_STATS_RL:         GsNm1 (THERMODYNAMICS)  max=  4.34609683779516E-07
DEBUG_STATS_RL:         GsNm1 (THERMODYNAMICS) mean= -1.48435207149656E-10
DEBUG_STATS_RL:         GsNm1 (THERMODYNAMICS) S.D.=  1.84546597799415E-08
DEBUG_STATS_RL:                EtaN (DYNAMICS)  min= -1.88930656223930E+00
DEBUG_STATS_RL:                EtaN (DYNAMICS)  max=  8.63540330661707E-01
DEBUG_STATS_RL:                EtaN (DYNAMICS) mean= -1.81831774320131E-01
DEBUG_STATS_RL:                EtaN (DYNAMICS) S.D.=  7.08919963358977E-01
DEBUG_STATS_RL:                Uvel (DYNAMICS)  min= -1.25879166675195E-01
DEBUG_STATS_RL:                Uvel (DYNAMICS)  max=  1.83071004697100E-01
DEBUG_STATS_RL:                Uvel (DYNAMICS) mean=  5.53075594925629E-03
DEBUG_STATS_RL:                Uvel (DYNAMICS) S.D.=  2.26450359992592E-02
DEBUG_STATS_RL:                Vvel (DYNAMICS)  min= -9.04548716125587E-02
DEBUG_STATS_RL:                Vvel (DYNAMICS)  max=  1.40963932969406E-01
DEBUG_STATS_RL:                Vvel (DYNAMICS) mean=  1.57306569139552E-03
DEBUG_STATS_RL:                Vvel (DYNAMICS) S.D.=  1.38517451210004E-02
DEBUG_STATS_RL:                Wvel (DYNAMICS)  min= -6.67032062311979E-05
DEBUG_STATS_RL:                Wvel (DYNAMICS)  max=  1.38960219069061E-04
DEBUG_STATS_RL:                Wvel (DYNAMICS) mean=  6.20754751852122E-08
DEBUG_STATS_RL:                Wvel (DYNAMICS) S.D.=  1.01722569204046E-05
DEBUG_STATS_RL:               Theta (DYNAMICS)  min= -1.97713063989806E+00
DEBUG_STATS_RL:               Theta (DYNAMICS)  max=  3.04021220185595E+01
DEBUG_STATS_RL:               Theta (DYNAMICS) mean=  3.21893224974120E+00
DEBUG_STATS_RL:               Theta (DYNAMICS) S.D.=  5.87409293605893E+00
DEBUG_STATS_RL:                Salt (DYNAMICS)  min= -2.25514051876985E-17
DEBUG_STATS_RL:                Salt (DYNAMICS)  max=  3.74628219043989E+01
DEBUG_STATS_RL:                Salt (DYNAMICS) mean=  1.88449364491298E+01
DEBUG_STATS_RL:                Salt (DYNAMICS) S.D.=  1.73004551558259E+01
DEBUG_STATS_RL:                  Gu (DYNAMICS)  min= -1.25644069502296E-01
DEBUG_STATS_RL:                  Gu (DYNAMICS)  max=  1.83684779663445E-01
DEBUG_STATS_RL:                  Gu (DYNAMICS) mean=  5.39900092360584E-03
DEBUG_STATS_RL:                  Gu (DYNAMICS) S.D.=  2.25641920982405E-02
DEBUG_STATS_RL:                  Gv (DYNAMICS)  min= -9.15938613841904E-02
DEBUG_STATS_RL:                  Gv (DYNAMICS)  max=  1.43661053422524E-01
DEBUG_STATS_RL:                  Gv (DYNAMICS) mean=  4.05399122540637E-03
DEBUG_STATS_RL:                  Gv (DYNAMICS) S.D.=  1.55003446271486E-02
DEBUG_STATS_RL:               GuNm1 (DYNAMICS)  min= -9.63108346396796E-06
DEBUG_STATS_RL:               GuNm1 (DYNAMICS)  max=  9.05879890160552E-06
DEBUG_STATS_RL:               GuNm1 (DYNAMICS) mean= -4.44110748747470E-09
DEBUG_STATS_RL:               GuNm1 (DYNAMICS) S.D.=  1.18443860772328E-06
DEBUG_STATS_RL:               GvNm1 (DYNAMICS)  min= -9.60640487352170E-06
DEBUG_STATS_RL:               GvNm1 (DYNAMICS)  max=  1.62705718629149E-05
DEBUG_STATS_RL:               GvNm1 (DYNAMICS) mean=  7.44278252006175E-07
DEBUG_STATS_RL:               GvNm1 (DYNAMICS) S.D.=  2.61991486388190E-06
DEBUG_STATS_RL:               GtNm1 (DYNAMICS)  min= -5.64724717656713E-06
DEBUG_STATS_RL:               GtNm1 (DYNAMICS)  max=  2.97678762589803E-06
DEBUG_STATS_RL:               GtNm1 (DYNAMICS) mean=  2.48900044747481E-09
DEBUG_STATS_RL:               GtNm1 (DYNAMICS) S.D.=  1.83194200282171E-07
DEBUG_STATS_RL:               GsNm1 (DYNAMICS)  min= -5.58420722020630E-07
DEBUG_STATS_RL:               GsNm1 (DYNAMICS)  max=  4.34609683779516E-07
DEBUG_STATS_RL:               GsNm1 (DYNAMICS) mean= -1.48435207149656E-10
DEBUG_STATS_RL:               GsNm1 (DYNAMICS) S.D.=  1.84546597799415E-08
DEBUG_STATS_RL:    cg2d_b (SOLVE_FOR_PRESSURE)  min= -2.05462653196762E+04
DEBUG_STATS_RL:    cg2d_b (SOLVE_FOR_PRESSURE)  max=  2.59655606575121E+04
DEBUG_STATS_RL:    cg2d_b (SOLVE_FOR_PRESSURE) mean=  3.89446828111822E+00
DEBUG_STATS_RL:    cg2d_b (SOLVE_FOR_PRESSURE) S.D.=  3.78827733111406E+03
 cg2d: Sum(rhs),rhsMax =   3.47217384970259E-01  1.70548754484512E+00
(PID.TID 0000.0001)  cg2d: iter=     1 ; resid.=  7.91381821300758E-02
(PID.TID 0000.0001)  cg2d: iter=     2 ; resid.=  5.13425062120360E-02
(PID.TID 0000.0001)  cg2d: iter=     3 ; resid.=  6.03343225156587E-02
(PID.TID 0000.0001)  cg2d: iter=     4 ; resid.=  5.90424527405305E-02
(PID.TID 0000.0001)  cg2d: iter=     5 ; resid.=  5.41786926902573E-02
(PID.TID 0000.0001)  cg2d: iter=     6 ; resid.=  4.72996285691509E-02
(PID.TID 0000.0001)  cg2d: iter=     7 ; resid.=  3.74475052017843E-02
(PID.TID 0000.0001)  cg2d: iter=     8 ; resid.=  2.80840558748099E-02
(PID.TID 0000.0001)  cg2d: iter=     9 ; resid.=  2.12383353998990E-02
(PID.TID 0000.0001)  cg2d: iter=    10 ; resid.=  1.70520624627123E-02
(PID.TID 0000.0001)  cg2d: iter=    11 ; resid.=  1.34916176724478E-02
(PID.TID 0000.0001)  cg2d: iter=    12 ; resid.=  1.08205288807876E-02
(PID.TID 0000.0001)  cg2d: iter=    13 ; resid.=  8.44820349423879E-03
(PID.TID 0000.0001)  cg2d: iter=    14 ; resid.=  7.57071652832848E-03
(PID.TID 0000.0001)  cg2d: iter=    15 ; resid.=  6.93919042355404E-03
(PID.TID 0000.0001)  cg2d: iter=    16 ; resid.=  5.65775290119352E-03
(PID.TID 0000.0001)  cg2d: iter=    17 ; resid.=  5.08685671839047E-03
(PID.TID 0000.0001)  cg2d: iter=    18 ; resid.=  4.74540777469322E-03
(PID.TID 0000.0001)  cg2d: iter=    19 ; resid.=  3.79855567603333E-03
(PID.TID 0000.0001)  cg2d: iter=    20 ; resid.=  2.81239739981296E-03
(PID.TID 0000.0001)  cg2d: iter=    21 ; resid.=  2.20110358784964E-03
(PID.TID 0000.0001)  cg2d: iter=    22 ; resid.=  1.94909067411960E-03
(PID.TID 0000.0001)  cg2d: iter=    23 ; resid.=  1.61568600884055E-03
(PID.TID 0000.0001)  cg2d: iter=    24 ; resid.=  1.31472517776096E-03
(PID.TID 0000.0001)  cg2d: iter=    25 ; resid.=  1.09984882263100E-03
(PID.TID 0000.0001)  cg2d: iter=    26 ; resid.=  8.69788036827343E-04
(PID.TID 0000.0001)  cg2d: iter=    27 ; resid.=  7.17536721639170E-04
(PID.TID 0000.0001)  cg2d: iter=    28 ; resid.=  6.10543701032360E-04
(PID.TID 0000.0001)  cg2d: iter=    29 ; resid.=  4.75577160233860E-04
(PID.TID 0000.0001)  cg2d: iter=    30 ; resid.=  3.64763653736565E-04
(PID.TID 0000.0001)  cg2d: iter=    31 ; resid.=  3.09362599354724E-04
(PID.TID 0000.0001)  cg2d: iter=    32 ; resid.=  2.44507842837482E-04
(PID.TID 0000.0001)  cg2d: iter=    33 ; resid.=  1.93219188239570E-04
(PID.TID 0000.0001)  cg2d: iter=    34 ; resid.=  1.59161666745063E-04
(PID.TID 0000.0001)  cg2d: iter=    35 ; resid.=  1.23360005599363E-04
(PID.TID 0000.0001)  cg2d: iter=    36 ; resid.=  9.90093471115650E-05
(PID.TID 0000.0001)  cg2d: iter=    37 ; resid.=  8.42249672459328E-05
(PID.TID 0000.0001)  cg2d: iter=    38 ; resid.=  7.83595219059108E-05
(PID.TID 0000.0001)  cg2d: iter=    39 ; resid.=  6.36410782712821E-05
(PID.TID 0000.0001)  cg2d: iter=    40 ; resid.=  5.13682455180039E-05
(PID.TID 0000.0001)  cg2d: iter=    41 ; resid.=  4.08487478516065E-05
(PID.TID 0000.0001)  cg2d: iter=    42 ; resid.=  3.41570744203646E-05
(PID.TID 0000.0001)  cg2d: iter=    43 ; resid.=  2.94414452112355E-05
(PID.TID 0000.0001)  cg2d: iter=    44 ; resid.=  2.36793872750774E-05
(PID.TID 0000.0001)  cg2d: iter=    45 ; resid.=  1.78628483814907E-05
(PID.TID 0000.0001)  cg2d: iter=    46 ; resid.=  1.38001647202464E-05
(PID.TID 0000.0001)  cg2d: iter=    47 ; resid.=  1.12157488342216E-05
(PID.TID 0000.0001)  cg2d: iter=    48 ; resid.=  9.43683261251835E-06
(PID.TID 0000.0001)  cg2d: iter=    49 ; resid.=  7.59534330796031E-06
(PID.TID 0000.0001)  cg2d: iter=    50 ; resid.=  6.38825724619143E-06
(PID.TID 0000.0001)  cg2d: iter=    51 ; resid.=  5.41039666314060E-06
(PID.TID 0000.0001)  cg2d: iter=    52 ; resid.=  4.38017069214732E-06
(PID.TID 0000.0001)  cg2d: iter=    53 ; resid.=  3.82937754411241E-06
(PID.TID 0000.0001)  cg2d: iter=    54 ; resid.=  3.18750722771548E-06
(PID.TID 0000.0001)  cg2d: iter=    55 ; resid.=  2.44643213078567E-06
(PID.TID 0000.0001)  cg2d: iter=    56 ; resid.=  2.13022291241152E-06
(PID.TID 0000.0001)  cg2d: iter=    57 ; resid.=  1.92424567756439E-06
(PID.TID 0000.0001)  cg2d: iter=    58 ; resid.=  1.59921248342229E-06
(PID.TID 0000.0001)  cg2d: iter=    59 ; resid.=  1.26893209772332E-06
(PID.TID 0000.0001)  cg2d: iter=    60 ; resid.=  1.01058471097521E-06
(PID.TID 0000.0001)  cg2d: iter=    61 ; resid.=  8.55582604269944E-07
(PID.TID 0000.0001)  cg2d: iter=    62 ; resid.=  7.05039429822340E-07
(PID.TID 0000.0001)  cg2d: iter=    63 ; resid.=  5.29487254161958E-07
(PID.TID 0000.0001)  cg2d: iter=    64 ; resid.=  4.36702474303003E-07
(PID.TID 0000.0001)  cg2d: iter=    65 ; resid.=  3.55579253370482E-07
(PID.TID 0000.0001)  cg2d: iter=    66 ; resid.=  2.87132457374052E-07
(PID.TID 0000.0001)  cg2d: iter=    67 ; resid.=  2.12181790658199E-07
(PID.TID 0000.0001)  cg2d: iter=    68 ; resid.=  1.46488366084038E-07
(PID.TID 0000.0001)  cg2d: iter=    69 ; resid.=  1.07809518635009E-07
(PID.TID 0000.0001)  cg2d: iter=    70 ; resid.=  8.12347383293225E-08
(PID.TID 0000.0001)  cg2d: iter=    71 ; resid.=  6.14036715750963E-08
(PID.TID 0000.0001)  cg2d: iter=    72 ; resid.=  4.62804502294228E-08
(PID.TID 0000.0001)  cg2d: iter=    73 ; resid.=  3.43295747203131E-08
(PID.TID 0000.0001)  cg2d: iter=    74 ; resid.=  2.58576814007728E-08
(PID.TID 0000.0001)  cg2d: iter=    75 ; resid.=  1.98693508632975E-08
(PID.TID 0000.0001)  cg2d: iter=    76 ; resid.=  1.73673068535974E-08
(PID.TID 0000.0001)  cg2d: iter=    77 ; resid.=  1.38609124837048E-08
(PID.TID 0000.0001)  cg2d: iter=    78 ; resid.=  1.03811780998172E-08
(PID.TID 0000.0001)  cg2d: iter=    79 ; resid.=  8.30800331489076E-09
(PID.TID 0000.0001)  cg2d: iter=    80 ; resid.=  7.26604939935220E-09
(PID.TID 0000.0001)  cg2d: iter=    81 ; resid.=  6.17677358590497E-09
(PID.TID 0000.0001)  cg2d: iter=    82 ; resid.=  4.92143867062150E-09
(PID.TID 0000.0001)  cg2d: iter=    83 ; resid.=  4.03816291813240E-09
(PID.TID 0000.0001)  cg2d: iter=    84 ; resid.=  3.71359048095954E-09
(PID.TID 0000.0001)  cg2d: iter=    85 ; resid.=  3.37486899281715E-09
(PID.TID 0000.0001)  cg2d: iter=    86 ; resid.=  2.77897818075581E-09
(PID.TID 0000.0001)  cg2d: iter=    87 ; resid.=  2.22759390172144E-09
(PID.TID 0000.0001)  cg2d: iter=    88 ; resid.=  1.75054259192132E-09
(PID.TID 0000.0001)  cg2d: iter=    89 ; resid.=  1.64032615290275E-09
(PID.TID 0000.0001)  cg2d: iter=    90 ; resid.=  1.70841714793753E-09
(PID.TID 0000.0001)  cg2d: iter=    91 ; resid.=  1.61633094905014E-09
(PID.TID 0000.0001)  cg2d: iter=    92 ; resid.=  1.27090968712123E-09
(PID.TID 0000.0001)  cg2d: iter=    93 ; resid.=  9.14777610838907E-10
(PID.TID 0000.0001)  cg2d: iter=    94 ; resid.=  7.63371723628584E-10
(PID.TID 0000.0001)  cg2d: iter=    95 ; resid.=  7.06883224984198E-10
(PID.TID 0000.0001)  cg2d: iter=    96 ; resid.=  5.95643486106983E-10
(PID.TID 0000.0001)  cg2d: iter=    97 ; resid.=  4.30678875460020E-10
(PID.TID 0000.0001)  cg2d: iter=    98 ; resid.=  3.04536761898162E-10
(PID.TID 0000.0001)  cg2d: iter=    99 ; resid.=  2.43959008446142E-10
(PID.TID 0000.0001)  cg2d: iter=   100 ; resid.=  2.31082183774785E-10
(PID.TID 0000.0001)  cg2d: iter=   101 ; resid.=  2.12375071802483E-10
(PID.TID 0000.0001)  cg2d: iter=   102 ; resid.=  1.68215515627099E-10
(PID.TID 0000.0001)  cg2d: iter=   103 ; resid.=  1.32790609160762E-10
(PID.TID 0000.0001)  cg2d: iter=   104 ; resid.=  1.17217346947782E-10
(PID.TID 0000.0001)  cg2d: iter=   105 ; resid.=  1.10320519936260E-10
(PID.TID 0000.0001)  cg2d: iter=   106 ; resid.=  9.27681407593365E-11
(PID.TID 0000.0001)  cg2d: iter=   107 ; resid.=  6.61330867371287E-11
(PID.TID 0000.0001)  cg2d: iter=   108 ; resid.=  4.85492216573036E-11
(PID.TID 0000.0001)  cg2d: iter=   109 ; resid.=  3.99549433630555E-11
(PID.TID 0000.0001)  cg2d: iter=   110 ; resid.=  3.57551285840195E-11
(PID.TID 0000.0001)  cg2d: iter=   111 ; resid.=  2.56932491067658E-11
(PID.TID 0000.0001)  cg2d: iter=   112 ; resid.=  1.80560637588894E-11
(PID.TID 0000.0001)  cg2d: iter=   113 ; resid.=  1.29994958788686E-11
(PID.TID 0000.0001)  cg2d: iter=   114 ; resid.=  1.01805917695030E-11
(PID.TID 0000.0001)  cg2d: iter=   115 ; resid.=  8.42453004856821E-12
(PID.TID 0000.0001)  cg2d: iter=   116 ; resid.=  6.58828708803881E-12
(PID.TID 0000.0001)  cg2d: iter=   117 ; resid.=  4.89332498159689E-12
(PID.TID 0000.0001)  cg2d: iter=   118 ; resid.=  3.58063189580338E-12
(PID.TID 0000.0001)  cg2d: iter=   119 ; resid.=  3.01454732671694E-12
(PID.TID 0000.0001)  cg2d: iter=   120 ; resid.=  2.63847367746040E-12
(PID.TID 0000.0001)  cg2d: iter=   121 ; resid.=  2.01149375109578E-12
(PID.TID 0000.0001)  cg2d: iter=   122 ; resid.=  1.42011026674042E-12
(PID.TID 0000.0001)  cg2d: iter=   123 ; resid.=  1.07145543107742E-12
(PID.TID 0000.0001)  cg2d: iter=   124 ; resid.=  8.73083197226959E-13
(PID.TID 0000.0001)  cg2d: iter=   125 ; resid.=  6.94852630053650E-13
(PID.TID 0000.0001)  cg2d: iter=   126 ; resid.=  4.90303822356455E-13
(PID.TID 0000.0001)  cg2d: iter=   127 ; resid.=  2.96769884176770E-13
(PID.TID 0000.0001)  cg2d: iter=   128 ; resid.=  1.70942567494834E-13
(PID.TID 0000.0001)  cg2d: iter=   129 ; resid.=  1.09344750438537E-13
(PID.TID 0000.0001)  cg2d: iter=   130 ; resid.=  8.00411313805007E-14
DEBUG_STATS_RL:    cg2d_x (SOLVE_FOR_PRESSURE)  min= -1.86452355195528E+01
DEBUG_STATS_RL:    cg2d_x (SOLVE_FOR_PRESSURE)  max=  8.57750113479799E+00
DEBUG_STATS_RL:    cg2d_x (SOLVE_FOR_PRESSURE) mean= -1.79684809208778E+00
DEBUG_STATS_RL:    cg2d_x (SOLVE_FOR_PRESSURE) S.D.=  7.01529036224437E+00
(PID.TID 0000.0001)      cg2d_init_res =   2.70391529548487E-01
(PID.TID 0000.0001)      cg2d_iters(min,last) =      -1     130
(PID.TID 0000.0001)      cg2d_last_res =   8.00411313805007E-14
(PID.TID 0000.0001) // =======================================================
(PID.TID 0000.0001) // Begin MONITOR dynamic field statistics
(PID.TID 0000.0001) // =======================================================
(PID.TID 0000.0001) %MON time_tsnumber                =                    54
(PID.TID 0000.0001) %MON time_secondsf                =   4.6656000000000E+06
(PID.TID 0000.0001) %MON dynstat_eta_max              =   8.7436301068271E-01
(PID.TID 0000.0001) %MON dynstat_eta_min              =  -1.9006356289044E+00
(PID.TID 0000.0001) %MON dynstat_eta_mean             =  -4.0633947532221E-03
(PID.TID 0000.0001) %MON dynstat_eta_sd               =   6.2246646168537E-01
(PID.TID 0000.0001) %MON dynstat_eta_del2             =   2.3155188537651E-03
(PID.TID 0000.0001) %MON dynstat_uvel_max             =   1.7814266854897E-01
(PID.TID 0000.0001) %MON dynstat_uvel_min             =  -1.2588498765892E-01
(PID.TID 0000.0001) %MON dynstat_uvel_mean            =   2.2759522542322E-03
(PID.TID 0000.0001) %MON dynstat_uvel_sd              =   1.3637147048925E-02
(PID.TID 0000.0001) %MON dynstat_uvel_del2            =   8.1544274038257E-05
(PID.TID 0000.0001) %MON dynstat_vvel_max             =   1.4205203318885E-01
(PID.TID 0000.0001) %MON dynstat_vvel_min             =  -8.9776171727669E-02
(PID.TID 0000.0001) %MON dynstat_vvel_mean            =  -1.6272023357418E-05
(PID.TID 0000.0001) %MON dynstat_vvel_sd              =   8.3069011618999E-03
(PID.TID 0000.0001) %MON dynstat_vvel_del2            =   7.1615131349823E-05
(PID.TID 0000.0001) %MON dynstat_wvel_max             =   1.3368176184744E-04
(PID.TID 0000.0001) %MON dynstat_wvel_min             =  -6.4363744269036E-05
(PID.TID 0000.0001) %MON dynstat_wvel_mean            =  -1.7084567009607E-22
(PID.TID 0000.0001) %MON dynstat_wvel_sd              =   1.1308451028748E-05
(PID.TID 0000.0001) %MON dynstat_wvel_del2            =   1.1951242363293E-07
(PID.TID 0000.0001) %MON dynstat_theta_max            =   3.0402122018560E+01
(PID.TID 0000.0001) %MON dynstat_theta_min            =  -1.9771306398981E+00
(PID.TID 0000.0001) %MON dynstat_theta_mean           =   3.6229412195758E+00
(PID.TID 0000.0001) %MON dynstat_theta_sd             =   4.4222727697439E+00
(PID.TID 0000.0001) %MON dynstat_theta_del2           =   4.8266476692550E-03
(PID.TID 0000.0001) %MON dynstat_salt_max             =   3.7462821904399E+01
(PID.TID 0000.0001) %MON dynstat_salt_min             =   2.9858735516003E+01
(PID.TID 0000.0001) %MON dynstat_salt_mean            =   3.4717993502254E+01
(PID.TID 0000.0001) %MON dynstat_salt_sd              =   2.9641451443827E-01
(PID.TID 0000.0001) %MON dynstat_salt_del2            =   9.8864351245722E-04
(PID.TID 0000.0001) %MON dynstat_sst_max              =   3.0402122018560E+01
(PID.TID 0000.0001) %MON dynstat_sst_min              =  -1.9771306398981E+00
(PID.TID 0000.0001) %MON dynstat_sst_mean             =   1.8956018867605E+01
(PID.TID 0000.0001) %MON dynstat_sst_sd               =   9.0358529748885E+00
(PID.TID 0000.0001) %MON dynstat_sst_del2             =   2.7688747729241E-02
(PID.TID 0000.0001) %MON dynstat_sss_max              =   3.7443185890106E+01
(PID.TID 0000.0001) %MON dynstat_sss_min              =   2.9858735516003E+01
(PID.TID 0000.0001) %MON dynstat_sss_mean             =   3.4842473770822E+01
(PID.TID 0000.0001) %MON dynstat_sss_sd               =   9.7885592424034E-01
(PID.TID 0000.0001) %MON dynstat_sss_del2             =   7.9489036921493E-03
(PID.TID 0000.0001) %MON forcing_qnet_max             =   3.3606702677409E+02
(PID.TID 0000.0001) %MON forcing_qnet_min             =  -1.7043973490397E+02
(PID.TID 0000.0001) %MON forcing_qnet_mean            =  -1.2178534981930E+01
(PID.TID 0000.0001) %MON forcing_qnet_sd              =   6.8564785019729E+01
(PID.TID 0000.0001) %MON forcing_qnet_del2            =   9.0838036604570E-01
(PID.TID 0000.0001) %MON forcing_qsw_max              =   0.0000000000000E+00
(PID.TID 0000.0001) %MON forcing_qsw_min              =   0.0000000000000E+00
(PID.TID 0000.0001) %MON forcing_qsw_mean             =   0.0000000000000E+00
(PID.TID 0000.0001) %MON forcing_qsw_sd               =   0.0000000000000E+00
(PID.TID 0000.0001) %MON forcing_qsw_del2             =   0.0000000000000E+00
(PID.TID 0000.0001) %MON forcing_empmr_max            =   6.9235461334453E-05
(PID.TID 0000.0001) %MON forcing_empmr_min            =  -7.4482466535149E-05
(PID.TID 0000.0001) %MON forcing_empmr_mean           =   8.3868953291453E-07
(PID.TID 0000.0001) %MON forcing_empmr_sd             =   2.7327088528464E-05
(PID.TID 0000.0001) %MON forcing_empmr_del2           =   3.5326487369371E-07
(PID.TID 0000.0001) %MON forcing_fu_max               =   3.1523034572601E-01
(PID.TID 0000.0001) %MON forcing_fu_min               =  -2.5880938669046E-01
(PID.TID 0000.0001) %MON forcing_fu_mean              =   1.8384338332303E-02
(PID.TID 0000.0001) %MON forcing_fu_sd                =   9.3654975852564E-02
(PID.TID 0000.0001) %MON forcing_fu_del2              =   7.0776369504339E-04
(PID.TID 0000.0001) %MON forcing_fv_max               =   1.6049519777298E-01
(PID.TID 0000.0001) %MON forcing_fv_min               =  -1.8779096603394E-01
(PID.TID 0000.0001) %MON forcing_fv_mean              =  -7.3001517407161E-03
(PID.TID 0000.0001) %MON forcing_fv_sd                =   4.2910526443214E-02
(PID.TID 0000.0001) %MON forcing_fv_del2              =   4.8979344061927E-04
(PID.TID 0000.0001) %MON trAdv_CFL_u_max              =   4.7870863058673E-02
(PID.TID 0000.0001) %MON trAdv_CFL_v_max              =   2.7207340628351E-02
(PID.TID 0000.0001) %MON trAdv_CFL_w_max              =   3.6651188737907E-02
(PID.TID 0000.0001) %MON advcfl_uvel_max              =   4.6572703257297E-02
(PID.TID 0000.0001) %MON advcfl_vvel_max              =   2.7598431807885E-02
(PID.TID 0000.0001) %MON advcfl_wvel_max              =   4.1282913615804E-02
(PID.TID 0000.0001) %MON advcfl_W_hf_max              =   5.0129252247762E-02
(PID.TID 0000.0001) %MON pe_b_mean                    =   4.9582865276714E-04
(PID.TID 0000.0001) %MON ke_max                       =   1.6032406785898E-02
(PID.TID 0000.0001) %MON ke_mean                      =   1.1782243928645E-04
(PID.TID 0000.0001) %MON ke_vol                       =   1.3226782436723E+18
(PID.TID 0000.0001) %MON vort_r_min                   =  -4.4400805905863E-07
(PID.TID 0000.0001) %MON vort_r_max                   =   3.8709601527850E-07
(PID.TID 0000.0001) %MON vort_a_mean                  =  -2.5274807008674E-05
(PID.TID 0000.0001) %MON vort_a_sd                    =   7.3604667168163E-05
(PID.TID 0000.0001) %MON vort_p_mean                  =  -3.1845655309622E-05
(PID.TID 0000.0001) %MON vort_p_sd                    =   1.3162489488335E-04
(PID.TID 0000.0001) %MON surfExpan_theta_mean         =   3.4634383741270E-07
(PID.TID 0000.0001) %MON surfExpan_salt_mean          =  -4.0129043144216E-08
(PID.TID 0000.0001) // =======================================================
(PID.TID 0000.0001) // End MONITOR dynamic field statistics
(PID.TID 0000.0001) // =======================================================
 EXTERNAL_FIELDS_LOAD,        54 : iP,iLd,i0,i1=    2    3    2    3 ; Wght=  0.7000000000  0.3000000000
 EXTERNAL_FIELDS_LOAD: (fu0,1),fu,fv= -1.4435E-02 -2.7199E-02 -1.8264E-02 -1.2518E-02
 EXTERNAL_FIELDS_LOAD: SST,SSS,Q,E-P= -4.2747E-01  3.4469E+01  2.3296E+02  8.5883E-06
DEBUG_STATS_RL:          Uvel (THERMODYNAMICS)  min= -1.25884987658917E-01
DEBUG_STATS_RL:          Uvel (THERMODYNAMICS)  max=  1.78142668548971E-01
DEBUG_STATS_RL:          Uvel (THERMODYNAMICS) mean=  5.47388256291841E-03
DEBUG_STATS_RL:          Uvel (THERMODYNAMICS) S.D.=  2.21873078239978E-02
DEBUG_STATS_RL:          Vvel (THERMODYNAMICS)  min= -8.97761717276688E-02
DEBUG_STATS_RL:          Vvel (THERMODYNAMICS)  max=  1.42052033188854E-01
DEBUG_STATS_RL:          Vvel (THERMODYNAMICS) mean=  1.52443627084559E-03
DEBUG_STATS_RL:          Vvel (THERMODYNAMICS) S.D.=  1.38057162178473E-02
DEBUG_STATS_RL:          Wvel (THERMODYNAMICS)  min= -6.43637442690363E-05
DEBUG_STATS_RL:          Wvel (THERMODYNAMICS)  max=  1.33681761847442E-04
DEBUG_STATS_RL:          Wvel (THERMODYNAMICS) mean=  5.52393581801047E-08
DEBUG_STATS_RL:          Wvel (THERMODYNAMICS) S.D.=  1.00421325745359E-05
DEBUG_STATS_RL:         Theta (THERMODYNAMICS)  min= -1.97558044628364E+00
DEBUG_STATS_RL:         Theta (THERMODYNAMICS)  max=  3.04082282163969E+01
DEBUG_STATS_RL:         Theta (THERMODYNAMICS) mean=  3.21901612279677E+00
DEBUG_STATS_RL:         Theta (THERMODYNAMICS) S.D.=  5.87462640861649E+00
DEBUG_STATS_RL:          Salt (THERMODYNAMICS)  min= -2.25514051876985E-17
DEBUG_STATS_RL:          Salt (THERMODYNAMICS)  max=  3.74636917677401E+01
DEBUG_STATS_RL:          Salt (THERMODYNAMICS) mean=  1.88449291236458E+01
DEBUG_STATS_RL:          Salt (THERMODYNAMICS) S.D.=  1.73004489139505E+01
DEBUG_STATS_RL:         GtNm1 (THERMODYNAMICS)  min= -5.39621055094940E-06
DEBUG_STATS_RL:         GtNm1 (THERMODYNAMICS)  max=  2.80717609669205E-06
DEBUG_STATS_RL:         GtNm1 (THERMODYNAMICS) mean=  2.06881802829512E-09
DEBUG_STATS_RL:         GtNm1 (THERMODYNAMICS) S.D.=  1.81116580851635E-07
DEBUG_STATS_RL:         GsNm1 (THERMODYNAMICS)  min= -5.27542004499433E-07
DEBUG_STATS_RL:         GsNm1 (THERMODYNAMICS)  max=  4.94934386374315E-07
DEBUG_STATS_RL:         GsNm1 (THERMODYNAMICS) mean= -2.17972286672003E-10
DEBUG_STATS_RL:         GsNm1 (THERMODYNAMICS) S.D.=  1.85106711309901E-08
DEBUG_STATS_RL:                EtaN (DYNAMICS)  min= -1.90063562890442E+00
DEBUG_STATS_RL:                EtaN (DYNAMICS)  max=  8.74363010682712E-01
DEBUG_STATS_RL:                EtaN (DYNAMICS) mean= -1.83164943128213E-01
DEBUG_STATS_RL:                EtaN (DYNAMICS) S.D.=  7.15116244877105E-01
DEBUG_STATS_RL:                Uvel (DYNAMICS)  min= -1.25884987658917E-01
DEBUG_STATS_RL:                Uvel (DYNAMICS)  max=  1.78142668548971E-01
DEBUG_STATS_RL:                Uvel (DYNAMICS) mean=  5.47388256291841E-03
DEBUG_STATS_RL:                Uvel (DYNAMICS) S.D.=  2.21873078239978E-02
DEBUG_STATS_RL:                Vvel (DYNAMICS)  min= -8.97761717276688E-02
DEBUG_STATS_RL:                Vvel (DYNAMICS)  max=  1.42052033188854E-01
DEBUG_STATS_RL:                Vvel (DYNAMICS) mean=  1.52443627084559E-03
DEBUG_STATS_RL:                Vvel (DYNAMICS) S.D.=  1.38057162178473E-02
DEBUG_STATS_RL:                Wvel (DYNAMICS)  min= -6.43637442690363E-05
DEBUG_STATS_RL:                Wvel (DYNAMICS)  max=  1.33681761847442E-04
DEBUG_STATS_RL:                Wvel (DYNAMICS) mean=  5.52393581801047E-08
DEBUG_STATS_RL:                Wvel (DYNAMICS) S.D.=  1.00421325745359E-05
DEBUG_STATS_RL:               Theta (DYNAMICS)  min= -1.97558044628364E+00
DEBUG_STATS_RL:               Theta (DYNAMICS)  max=  3.04082282163969E+01
DEBUG_STATS_RL:               Theta (DYNAMICS) mean=  3.21901612279677E+00
DEBUG_STATS_RL:               Theta (DYNAMICS) S.D.=  5.87462640861649E+00
DEBUG_STATS_RL:                Salt (DYNAMICS)  min= -2.25514051876985E-17
DEBUG_STATS_RL:                Salt (DYNAMICS)  max=  3.74636917677401E+01
DEBUG_STATS_RL:                Salt (DYNAMICS) mean=  1.88449291236458E+01
DEBUG_STATS_RL:                Salt (DYNAMICS) S.D.=  1.73004489139505E+01
DEBUG_STATS_RL:                  Gu (DYNAMICS)  min= -1.25561038650843E-01
DEBUG_STATS_RL:                  Gu (DYNAMICS)  max=  1.77261368385896E-01
DEBUG_STATS_RL:                  Gu (DYNAMICS) mean=  5.34703459871051E-03
DEBUG_STATS_RL:                  Gu (DYNAMICS) S.D.=  2.21100227403564E-02
DEBUG_STATS_RL:                  Gv (DYNAMICS)  min= -9.13951475594597E-02
DEBUG_STATS_RL:                  Gv (DYNAMICS)  max=  1.44486390626555E-01
DEBUG_STATS_RL:                  Gv (DYNAMICS) mean=  3.98635278136750E-03
DEBUG_STATS_RL:                  Gv (DYNAMICS) S.D.=  1.54600662585368E-02
DEBUG_STATS_RL:               GuNm1 (DYNAMICS)  min= -9.67730176497359E-06
DEBUG_STATS_RL:               GuNm1 (DYNAMICS)  max=  9.10551690084949E-06
DEBUG_STATS_RL:               GuNm1 (DYNAMICS) mean= -3.46386081604661E-09
DEBUG_STATS_RL:               GuNm1 (DYNAMICS) S.D.=  1.18598176525561E-06
DEBUG_STATS_RL:               GvNm1 (DYNAMICS)  min= -9.63801475084164E-06
DEBUG_STATS_RL:               GvNm1 (DYNAMICS)  max=  1.62204091612740E-05
DEBUG_STATS_RL:               GvNm1 (DYNAMICS) mean=  7.43531863097576E-07
DEBUG_STATS_RL:               GvNm1 (DYNAMICS) S.D.=  2.62438970367758E-06
DEBUG_STATS_RL:               GtNm1 (DYNAMICS)  min= -5.39621055094940E-06
DEBUG_STATS_RL:               GtNm1 (DYNAMICS)  max=  2.80717609669205E-06
DEBUG_STATS_RL:               GtNm1 (DYNAMICS) mean=  2.06881802829512E-09
DEBUG_STATS_RL:               GtNm1 (DYNAMICS) S.D.=  1.81116580851635E-07
DEBUG_STATS_RL:               GsNm1 (DYNAMICS)  min= -5.27542004499433E-07
DEBUG_STATS_RL:               GsNm1 (DYNAMICS)  max=  4.94934386374315E-07
DEBUG_STATS_RL:               GsNm1 (DYNAMICS) mean= -2.17972286672003E-10
DEBUG_STATS_RL:               GsNm1 (DYNAMICS) S.D.=  1.85106711309901E-08
DEBUG_STATS_RL:    cg2d_b (SOLVE_FOR_PRESSURE)  min= -2.06132153279806E+04
DEBUG_STATS_RL:    cg2d_b (SOLVE_FOR_PRESSURE)  max=  2.59583503435342E+04
DEBUG_STATS_RL:    cg2d_b (SOLVE_FOR_PRESSURE) mean=  3.96052272235757E+00
DEBUG_STATS_RL:    cg2d_b (SOLVE_FOR_PRESSURE) S.D.=  3.80992933467813E+03
 cg2d: Sum(rhs),rhsMax =   3.53204652103090E-01  1.70501395211797E+00
(PID.TID 0000.0001)  cg2d: iter=     1 ; resid.=  7.74150707614639E-02
(PID.TID 0000.0001)  cg2d: iter=     2 ; resid.=  5.08322979004406E-02
(PID.TID 0000.0001)  cg2d: iter=     3 ; resid.=  5.89419562317480E-02
(PID.TID 0000.0001)  cg2d: iter=     4 ; resid.=  5.70929748523289E-02
(PID.TID 0000.0001)  cg2d: iter=     5 ; resid.=  5.35226475743716E-02
(PID.TID 0000.0001)  cg2d: iter=     6 ; resid.=  4.65299287484383E-02
(PID.TID 0000.0001)  cg2d: iter=     7 ; resid.=  3.66701684619595E-02
(PID.TID 0000.0001)  cg2d: iter=     8 ; resid.=  2.77128699318861E-02
(PID.TID 0000.0001)  cg2d: iter=     9 ; resid.=  2.09558776058630E-02
(PID.TID 0000.0001)  cg2d: iter=    10 ; resid.=  1.65495489065218E-02
(PID.TID 0000.0001)  cg2d: iter=    11 ; resid.=  1.29484506287472E-02
(PID.TID 0000.0001)  cg2d: iter=    12 ; resid.=  1.04642487037176E-02
(PID.TID 0000.0001)  cg2d: iter=    13 ; resid.=  8.18085668887858E-03
(PID.TID 0000.0001)  cg2d: iter=    14 ; resid.=  7.35850351271767E-03
(PID.TID 0000.0001)  cg2d: iter=    15 ; resid.=  6.70856235131981E-03
(PID.TID 0000.0001)  cg2d: iter=    16 ; resid.=  5.50533778218467E-03
(PID.TID 0000.0001)  cg2d: iter=    17 ; resid.=  4.97218196677494E-03
(PID.TID 0000.0001)  cg2d: iter=    18 ; resid.=  4.66518595907104E-03
(PID.TID 0000.0001)  cg2d: iter=    19 ; resid.=  3.67198341889128E-03
(PID.TID 0000.0001)  cg2d: iter=    20 ; resid.=  2.70449587607409E-03
(PID.TID 0000.0001)  cg2d: iter=    21 ; resid.=  2.12496064077851E-03
(PID.TID 0000.0001)  cg2d: iter=    22 ; resid.=  1.84422999172188E-03
(PID.TID 0000.0001)  cg2d: iter=    23 ; resid.=  1.52536186991549E-03
(PID.TID 0000.0001)  cg2d: iter=    24 ; resid.=  1.27701532138806E-03
(PID.TID 0000.0001)  cg2d: iter=    25 ; resid.=  1.07515019622442E-03
(PID.TID 0000.0001)  cg2d: iter=    26 ; resid.=  8.51666051418172E-04
(PID.TID 0000.0001)  cg2d: iter=    27 ; resid.=  7.08540282733193E-04
(PID.TID 0000.0001)  cg2d: iter=    28 ; resid.=  5.97073714881327E-04
(PID.TID 0000.0001)  cg2d: iter=    29 ; resid.=  4.52365303807392E-04
(PID.TID 0000.0001)  cg2d: iter=    30 ; resid.=  3.46898234493062E-04
(PID.TID 0000.0001)  cg2d: iter=    31 ; resid.=  2.97774676777225E-04
(PID.TID 0000.0001)  cg2d: iter=    32 ; resid.=  2.33020115736963E-04
(PID.TID 0000.0001)  cg2d: iter=    33 ; resid.=  1.85328381561594E-04
(PID.TID 0000.0001)  cg2d: iter=    34 ; resid.=  1.53799021704227E-04
(PID.TID 0000.0001)  cg2d: iter=    35 ; resid.=  1.20739529221234E-04
(PID.TID 0000.0001)  cg2d: iter=    36 ; resid.=  9.78224800068029E-05
(PID.TID 0000.0001)  cg2d: iter=    37 ; resid.=  8.36074719050444E-05
(PID.TID 0000.0001)  cg2d: iter=    38 ; resid.=  7.77704936713353E-05
(PID.TID 0000.0001)  cg2d: iter=    39 ; resid.=  6.31238717391171E-05
(PID.TID 0000.0001)  cg2d: iter=    40 ; resid.=  5.10703947561479E-05
(PID.TID 0000.0001)  cg2d: iter=    41 ; resid.=  4.08562727067642E-05
(PID.TID 0000.0001)  cg2d: iter=    42 ; resid.=  3.36008069918565E-05
(PID.TID 0000.0001)  cg2d: iter=    43 ; resid.=  2.86043496480877E-05
(PID.TID 0000.0001)  cg2d: iter=    44 ; resid.=  2.29900087831244E-05
(PID.TID 0000.0001)  cg2d: iter=    45 ; resid.=  1.76537645087789E-05
(PID.TID 0000.0001)  cg2d: iter=    46 ; resid.=  1.39670155904100E-05
(PID.TID 0000.0001)  cg2d: iter=    47 ; resid.=  1.14917231007270E-05
(PID.TID 0000.0001)  cg2d: iter=    48 ; resid.=  9.70353279722476E-06
(PID.TID 0000.0001)  cg2d: iter=    49 ; resid.=  7.96966432838665E-06
(PID.TID 0000.0001)  cg2d: iter=    50 ; resid.=  6.76625118874889E-06
(PID.TID 0000.0001)  cg2d: iter=    51 ; resid.=  5.76823596454708E-06
(PID.TID 0000.0001)  cg2d: iter=    52 ; resid.=  4.65430811120703E-06
(PID.TID 0000.0001)  cg2d: iter=    53 ; resid.=  4.11451957160783E-06
(PID.TID 0000.0001)  cg2d: iter=    54 ; resid.=  3.46174146614668E-06
(PID.TID 0000.0001)  cg2d: iter=    55 ; resid.=  2.69773983016165E-06
(PID.TID 0000.0001)  cg2d: iter=    56 ; resid.=  2.41835764670419E-06
(PID.TID 0000.0001)  cg2d: iter=    57 ; resid.=  2.18387940578944E-06
(PID.TID 0000.0001)  cg2d: iter=    58 ; resid.=  1.80079548183205E-06
(PID.TID 0000.0001)  cg2d: iter=    59 ; resid.=  1.44764728806340E-06
(PID.TID 0000.0001)  cg2d: iter=    60 ; resid.=  1.16074059867814E-06
(PID.TID 0000.0001)  cg2d: iter=    61 ; resid.=  9.66030506633927E-07
(PID.TID 0000.0001)  cg2d: iter=    62 ; resid.=  8.01751877125693E-07
(PID.TID 0000.0001)  cg2d: iter=    63 ; resid.=  6.20481910190938E-07
(PID.TID 0000.0001)  cg2d: iter=    64 ; resid.=  5.18884580524149E-07
(PID.TID 0000.0001)  cg2d: iter=    65 ; resid.=  4.38474692598147E-07
(PID.TID 0000.0001)  cg2d: iter=    66 ; resid.=  3.72212980116136E-07
(PID.TID 0000.0001)  cg2d: iter=    67 ; resid.=  2.89486581285719E-07
(PID.TID 0000.0001)  cg2d: iter=    68 ; resid.=  2.19916920525428E-07
(PID.TID 0000.0001)  cg2d: iter=    69 ; resid.=  1.89430903881930E-07
(PID.TID 0000.0001)  cg2d: iter=    70 ; resid.=  1.68563124145765E-07
(PID.TID 0000.0001)  cg2d: iter=    71 ; resid.=  1.53957227826202E-07
(PID.TID 0000.0001)  cg2d: iter=    72 ; resid.=  1.38886719370486E-07
(PID.TID 0000.0001)  cg2d: iter=    73 ; resid.=  1.25723678871201E-07
(PID.TID 0000.0001)  cg2d: iter=    74 ; resid.=  1.14701479035682E-07
(PID.TID 0000.0001)  cg2d: iter=    75 ; resid.=  1.02085641836207E-07
(PID.TID 0000.0001)  cg2d: iter=    76 ; resid.=  8.89107296557469E-08
(PID.TID 0000.0001)  cg2d: iter=    77 ; resid.=  6.62600948098669E-08
(PID.TID 0000.0001)  cg2d: iter=    78 ; resid.=  4.87300605763854E-08
(PID.TID 0000.0001)  cg2d: iter=    79 ; resid.=  3.96080742725997E-08
(PID.TID 0000.0001)  cg2d: iter=    80 ; resid.=  3.13044018693273E-08
(PID.TID 0000.0001)  cg2d: iter=    81 ; resid.=  2.35755325591377E-08
(PID.TID 0000.0001)  cg2d: iter=    82 ; resid.=  1.73366049134918E-08
(PID.TID 0000.0001)  cg2d: iter=    83 ; resid.=  1.37065985081450E-08
(PID.TID 0000.0001)  cg2d: iter=    84 ; resid.=  1.14507644265181E-08
(PID.TID 0000.0001)  cg2d: iter=    85 ; resid.=  8.65681991085606E-09
(PID.TID 0000.0001)  cg2d: iter=    86 ; resid.=  6.29369739155127E-09
(PID.TID 0000.0001)  cg2d: iter=    87 ; resid.=  4.57903030988620E-09
(PID.TID 0000.0001)  cg2d: iter=    88 ; resid.=  3.45557325827890E-09
(PID.TID 0000.0001)  cg2d: iter=    89 ; resid.=  2.99669986513524E-09
(PID.TID 0000.0001)  cg2d: iter=    90 ; resid.=  2.72651385171327E-09
(PID.TID 0000.0001)  cg2d: iter=    91 ; resid.=  2.22511997936341E-09
(PID.TID 0000.0001)  cg2d: iter=    92 ; resid.=  1.58306507528962E-09
(PID.TID 0000.0001)  cg2d: iter=    93 ; resid.=  1.07896041501601E-09
(PID.TID 0000.0001)  cg2d: iter=    94 ; resid.=  8.54645309934921E-10
(PID.TID 0000.0001)  cg2d: iter=    95 ; resid.=  7.33616292998884E-10
(PID.TID 0000.0001)  cg2d: iter=    96 ; resid.=  5.90113755734074E-10
(PID.TID 0000.0001)  cg2d: iter=    97 ; resid.=  4.13534533873323E-10
(PID.TID 0000.0001)  cg2d: iter=    98 ; resid.=  2.82459729688954E-10
(PID.TID 0000.0001)  cg2d: iter=    99 ; resid.=  2.06869313673591E-10
(PID.TID 0000.0001)  cg2d: iter=   100 ; resid.=  1.80525423223506E-10
(PID.TID 0000.0001)  cg2d: iter=   101 ; resid.=  1.60495687975173E-10
(PID.TID 0000.0001)  cg2d: iter=   102 ; resid.=  1.26380307132873E-10
(PID.TID 0000.0001)  cg2d: iter=   103 ; resid.=  9.97156120639837E-11
(PID.TID 0000.0001)  cg2d: iter=   104 ; resid.=  8.57417862453485E-11
(PID.TID 0000.0001)  cg2d: iter=   105 ; resid.=  7.94731569081566E-11
(PID.TID 0000.0001)  cg2d: iter=   106 ; resid.=  6.89318277785818E-11
(PID.TID 0000.0001)  cg2d: iter=   107 ; resid.=  5.22655601693410E-11
(PID.TID 0000.0001)  cg2d: iter=   108 ; resid.=  3.96271116446540E-11
(PID.TID 0000.0001)  cg2d: iter=   109 ; resid.=  3.26732226708007E-11
(PID.TID 0000.0001)  cg2d: iter=   110 ; resid.=  2.97413436498071E-11
(PID.TID 0000.0001)  cg2d: iter=   111 ; resid.=  2.18318023295947E-11
(PID.TID 0000.0001)  cg2d: iter=   112 ; resid.=  1.58727958002251E-11
(PID.TID 0000.0001)  cg2d: iter=   113 ; resid.=  1.16923716426070E-11
(PID.TID 0000.0001)  cg2d: iter=   114 ; resid.=  9.13562180950885E-12
(PID.TID 0000.0001)  cg2d: iter=   115 ; resid.=  7.57922648254954E-12
(PID.TID 0000.0001)  cg2d: iter=   116 ; resid.=  5.99006112381934E-12
(PID.TID 0000.0001)  cg2d: iter=   117 ; resid.=  4.55696571447106E-12
(PID.TID 0000.0001)  cg2d: iter=   118 ; resid.=  3.39044894247059E-12
(PID.TID 0000.0001)  cg2d: iter=   119 ; resid.=  2.76288063819727E-12
(PID.TID 0000.0001)  cg2d: iter=   120 ; resid.=  2.36522422371829E-12
(PID.TID 0000.0001)  cg2d: iter=   121 ; resid.=  1.82213008617601E-12
(PID.TID 0000.0001)  cg2d: iter=   122 ; resid.=  1.32336219770275E-12
(PID.TID 0000.0001)  cg2d: iter=   123 ; resid.=  1.00142926545687E-12
(PID.TID 0000.0001)  cg2d: iter=   124 ; resid.=  7.93670350992997E-13
(PID.TID 0000.0001)  cg2d: iter=   125 ; resid.=  6.29092558706884E-13
(PID.TID 0000.0001)  cg2d: iter=   126 ; resid.=  4.48046291569822E-13
(PID.TID 0000.0001)  cg2d: iter=   127 ; resid.=  2.76887918206477E-13
(PID.TID 0000.0001)  cg2d: iter=   128 ; resid.=  1.62708321134999E-13
(PID.TID 0000.0001)  cg2d: iter=   129 ; resid.=  1.03961565780850E-13
(PID.TID 0000.0001)  cg2d: iter=   130 ; resid.=  7.54282817441026E-14
DEBUG_STATS_RL:    cg2d_x (SOLVE_FOR_PRESSURE)  min= -1.87214524388531E+01
DEBUG_STATS_RL:    cg2d_x (SOLVE_FOR_PRESSURE)  max=  8.69271155547514E+00
DEBUG_STATS_RL:    cg2d_x (SOLVE_FOR_PRESSURE) mean= -1.80957207354632E+00
DEBUG_STATS_RL:    cg2d_x (SOLVE_FOR_PRESSURE) S.D.=  7.07546850896509E+00
(PID.TID 0000.0001)      cg2d_init_res =   2.68036389434690E-01
(PID.TID 0000.0001)      cg2d_iters(min,last) =      -1     130
(PID.TID 0000.0001)      cg2d_last_res =   7.54282817441026E-14
(PID.TID 0000.0001) // =======================================================
(PID.TID 0000.0001) // Begin MONITOR dynamic field statistics
(PID.TID 0000.0001) // =======================================================
(PID.TID 0000.0001) %MON time_tsnumber                =                    55
(PID.TID 0000.0001) %MON time_secondsf                =   4.7520000000000E+06
(PID.TID 0000.0001) %MON dynstat_eta_max              =   8.8610719219934E-01
(PID.TID 0000.0001) %MON dynstat_eta_min              =  -1.9084049377015E+00
(PID.TID 0000.0001) %MON dynstat_eta_mean             =  -4.1323143721751E-03
(PID.TID 0000.0001) %MON dynstat_eta_sd               =   6.2885833234563E-01
(PID.TID 0000.0001) %MON dynstat_eta_del2             =   2.3301158720455E-03
(PID.TID 0000.0001) %MON dynstat_uvel_max             =   1.7163346379755E-01
(PID.TID 0000.0001) %MON dynstat_uvel_min             =  -1.2568375229124E-01
(PID.TID 0000.0001) %MON dynstat_uvel_mean            =   2.2796370651142E-03
(PID.TID 0000.0001) %MON dynstat_uvel_sd              =   1.3401203352882E-02
(PID.TID 0000.0001) %MON dynstat_uvel_del2            =   8.0643653011149E-05
(PID.TID 0000.0001) %MON dynstat_vvel_max             =   1.4265750554236E-01
(PID.TID 0000.0001) %MON dynstat_vvel_min             =  -8.9124409218955E-02
(PID.TID 0000.0001) %MON dynstat_vvel_mean            =  -1.7693431944879E-05
(PID.TID 0000.0001) %MON dynstat_vvel_sd              =   8.2858082054202E-03
(PID.TID 0000.0001) %MON dynstat_vvel_del2            =   7.1218543121297E-05
(PID.TID 0000.0001) %MON dynstat_wvel_max             =   1.2770698537797E-04
(PID.TID 0000.0001) %MON dynstat_wvel_min             =  -6.2492088410987E-05
(PID.TID 0000.0001) %MON dynstat_wvel_mean            =   4.3878333475704E-23
(PID.TID 0000.0001) %MON dynstat_wvel_sd              =   1.1205739505414E-05
(PID.TID 0000.0001) %MON dynstat_wvel_del2            =   1.1892320333936E-07
(PID.TID 0000.0001) %MON dynstat_theta_max            =   3.0408228216397E+01
(PID.TID 0000.0001) %MON dynstat_theta_min            =  -1.9755804462836E+00
(PID.TID 0000.0001) %MON dynstat_theta_mean           =   3.6230005873665E+00
(PID.TID 0000.0001) %MON dynstat_theta_sd             =   4.4224829533906E+00
(PID.TID 0000.0001) %MON dynstat_theta_del2           =   4.8396279438398E-03
(PID.TID 0000.0001) %MON dynstat_salt_max             =   3.7463691767740E+01
(PID.TID 0000.0001) %MON dynstat_salt_min             =   2.9860623562961E+01
(PID.TID 0000.0001) %MON dynstat_salt_mean            =   3.4717995325956E+01
(PID.TID 0000.0001) %MON dynstat_salt_sd              =   2.9642370606681E-01
(PID.TID 0000.0001) %MON dynstat_salt_del2            =   9.8924723220526E-04
(PID.TID 0000.0001) %MON dynstat_sst_max              =   3.0408228216397E+01
(PID.TID 0000.0001) %MON dynstat_sst_min              =  -1.9755804462836E+00
(PID.TID 0000.0001) %MON dynstat_sst_mean             =   1.8961572127884E+01
(PID.TID 0000.0001) %MON dynstat_sst_sd               =   9.0404487844811E+00
(PID.TID 0000.0001) %MON dynstat_sst_del2             =   2.7771861211976E-02
(PID.TID 0000.0001) %MON dynstat_sss_max              =   3.7444073822253E+01
(PID.TID 0000.0001) %MON dynstat_sss_min              =   2.9860623562961E+01
(PID.TID 0000.0001) %MON dynstat_sss_mean             =   3.4842132792929E+01
(PID.TID 0000.0001) %MON dynstat_sss_sd               =   9.7913432980131E-01
(PID.TID 0000.0001) %MON dynstat_sss_del2             =   7.9620939398885E-03
(PID.TID 0000.0001) %MON forcing_qnet_max             =   3.3326887512207E+02
(PID.TID 0000.0001) %MON forcing_qnet_min             =  -1.7014045562744E+02
(PID.TID 0000.0001) %MON forcing_qnet_mean            =  -1.1955195482304E+01
(PID.TID 0000.0001) %MON forcing_qnet_sd              =   6.7256363910996E+01
(PID.TID 0000.0001) %MON forcing_qnet_del2            =   9.0397400238124E-01
(PID.TID 0000.0001) %MON forcing_qsw_max              =   0.0000000000000E+00
(PID.TID 0000.0001) %MON forcing_qsw_min              =   0.0000000000000E+00
(PID.TID 0000.0001) %MON forcing_qsw_mean             =   0.0000000000000E+00
(PID.TID 0000.0001) %MON forcing_qsw_sd               =   0.0000000000000E+00
(PID.TID 0000.0001) %MON forcing_qsw_del2             =   0.0000000000000E+00
(PID.TID 0000.0001) %MON forcing_empmr_max            =   6.9229704990903E-05
(PID.TID 0000.0001) %MON forcing_empmr_min            =  -7.4881646128233E-05
(PID.TID 0000.0001) %MON forcing_empmr_mean           =   8.2559960204017E-07
(PID.TID 0000.0001) %MON forcing_empmr_sd             =   2.7255145290589E-05
(PID.TID 0000.0001) %MON forcing_empmr_del2           =   3.5320210303148E-07
(PID.TID 0000.0001) %MON forcing_fu_max               =   3.1678166687489E-01
(PID.TID 0000.0001) %MON forcing_fu_min               =  -2.6419401615858E-01
(PID.TID 0000.0001) %MON forcing_fu_mean              =   1.8478537921761E-02
(PID.TID 0000.0001) %MON forcing_fu_sd                =   9.3831537675814E-02
(PID.TID 0000.0001) %MON forcing_fu_del2              =   7.0632006807691E-04
(PID.TID 0000.0001) %MON forcing_fv_max               =   1.5941785573959E-01
(PID.TID 0000.0001) %MON forcing_fv_min               =  -1.8630492985249E-01
(PID.TID 0000.0001) %MON forcing_fv_mean              =  -7.3105800906856E-03
(PID.TID 0000.0001) %MON forcing_fv_sd                =   4.2714976969337E-02
(PID.TID 0000.0001) %MON forcing_fv_del2              =   4.8525323250971E-04
(PID.TID 0000.0001) %MON trAdv_CFL_u_max              =   4.6582162506422E-02
(PID.TID 0000.0001) %MON trAdv_CFL_v_max              =   2.7417354017483E-02
(PID.TID 0000.0001) %MON trAdv_CFL_w_max              =   3.5090476573433E-02
(PID.TID 0000.0001) %MON advcfl_uvel_max              =   4.4870970237365E-02
(PID.TID 0000.0001) %MON advcfl_vvel_max              =   2.7716065375562E-02
(PID.TID 0000.0001) %MON advcfl_wvel_max              =   3.8942213322139E-02
(PID.TID 0000.0001) %MON advcfl_W_hf_max              =   4.7286973319740E-02
(PID.TID 0000.0001) %MON pe_b_mean                    =   5.0606417244387E-04
(PID.TID 0000.0001) %MON ke_max                       =   1.5477434874267E-02
(PID.TID 0000.0001) %MON ke_mean                      =   1.1477464552587E-04
(PID.TID 0000.0001) %MON ke_vol                       =   1.3226782436723E+18
(PID.TID 0000.0001) %MON vort_r_min                   =  -4.3436991425909E-07
(PID.TID 0000.0001) %MON vort_r_max                   =   3.7908053355791E-07
(PID.TID 0000.0001) %MON vort_a_mean                  =  -2.5274807005727E-05
(PID.TID 0000.0001) %MON vort_a_sd                    =   7.3604667336647E-05
(PID.TID 0000.0001) %MON vort_p_mean                  =  -3.1845655305909E-05
(PID.TID 0000.0001) %MON vort_p_sd                    =   1.3162494678062E-04
(PID.TID 0000.0001) %MON surfExpan_theta_mean         =   3.3001702765514E-07
(PID.TID 0000.0001) %MON surfExpan_salt_mean          =  -4.0115819537152E-08
(PID.TID 0000.0001) // =======================================================
(PID.TID 0000.0001) // End MONITOR dynamic field statistics
(PID.TID 0000.0001) // =======================================================
 EXTERNAL_FIELDS_LOAD,        55 : iP,iLd,i0,i1=    2    3    2    3 ; Wght=  0.6666666667  0.3333333333
 EXTERNAL_FIELDS_LOAD: (fu0,1),fu,fv= -1.4435E-02 -2.7199E-02 -1.8689E-02 -1.1950E-02
 EXTERNAL_FIELDS_LOAD: SST,SSS,Q,E-P= -4.1587E-01  3.4474E+01  2.3212E+02  8.6117E-06
DEBUG_STATS_RL:          Uvel (THERMODYNAMICS)  min= -1.25683752291239E-01
DEBUG_STATS_RL:          Uvel (THERMODYNAMICS)  max=  1.71633463797554E-01
DEBUG_STATS_RL:          Uvel (THERMODYNAMICS) mean=  5.41377167214624E-03
DEBUG_STATS_RL:          Uvel (THERMODYNAMICS) S.D.=  2.17331768500253E-02
DEBUG_STATS_RL:          Vvel (THERMODYNAMICS)  min= -8.91244092189550E-02
DEBUG_STATS_RL:          Vvel (THERMODYNAMICS)  max=  1.42657505542359E-01
DEBUG_STATS_RL:          Vvel (THERMODYNAMICS) mean=  1.45308125718916E-03
DEBUG_STATS_RL:          Vvel (THERMODYNAMICS) S.D.=  1.37598929601442E-02
DEBUG_STATS_RL:          Wvel (THERMODYNAMICS)  min= -6.24920884109873E-05
DEBUG_STATS_RL:          Wvel (THERMODYNAMICS)  max=  1.27706985377966E-04
DEBUG_STATS_RL:          Wvel (THERMODYNAMICS) mean=  4.25955268920121E-08
DEBUG_STATS_RL:          Wvel (THERMODYNAMICS) S.D.=  9.94335816175437E-06
DEBUG_STATS_RL:         Theta (THERMODYNAMICS)  min= -1.97404895553497E+00
DEBUG_STATS_RL:         Theta (THERMODYNAMICS)  max=  3.04134095726270E+01
DEBUG_STATS_RL:         Theta (THERMODYNAMICS) mean=  3.21908969254549E+00
DEBUG_STATS_RL:         Theta (THERMODYNAMICS) S.D.=  5.87513597722936E+00
DEBUG_STATS_RL:          Salt (THERMODYNAMICS)  min= -2.25514051876985E-17
DEBUG_STATS_RL:          Salt (THERMODYNAMICS)  max=  3.74645032723757E+01
DEBUG_STATS_RL:          Salt (THERMODYNAMICS) mean=  1.88449186218897E+01
DEBUG_STATS_RL:          Salt (THERMODYNAMICS) S.D.=  1.73004397792868E+01
DEBUG_STATS_RL:         GtNm1 (THERMODYNAMICS)  min= -5.68728073978929E-06
DEBUG_STATS_RL:         GtNm1 (THERMODYNAMICS)  max=  3.02724286565560E-06
DEBUG_STATS_RL:         GtNm1 (THERMODYNAMICS) mean=  1.86021850478239E-09
DEBUG_STATS_RL:         GtNm1 (THERMODYNAMICS) S.D.=  1.79667405801819E-07
DEBUG_STATS_RL:         GsNm1 (THERMODYNAMICS)  min= -5.64877282159403E-07
DEBUG_STATS_RL:         GsNm1 (THERMODYNAMICS)  max=  3.72596645230566E-07
DEBUG_STATS_RL:         GsNm1 (THERMODYNAMICS) mean= -2.75776478701196E-10
DEBUG_STATS_RL:         GsNm1 (THERMODYNAMICS) S.D.=  1.78619516275442E-08
DEBUG_STATS_RL:                EtaN (DYNAMICS)  min= -1.90840493770152E+00
DEBUG_STATS_RL:                EtaN (DYNAMICS)  max=  8.86107192199337E-01
DEBUG_STATS_RL:                EtaN (DYNAMICS) mean= -1.84461985070980E-01
DEBUG_STATS_RL:                EtaN (DYNAMICS) S.D.=  7.21250612534672E-01
DEBUG_STATS_RL:                Uvel (DYNAMICS)  min= -1.25683752291239E-01
DEBUG_STATS_RL:                Uvel (DYNAMICS)  max=  1.71633463797554E-01
DEBUG_STATS_RL:                Uvel (DYNAMICS) mean=  5.41377167214624E-03
DEBUG_STATS_RL:                Uvel (DYNAMICS) S.D.=  2.17331768500253E-02
DEBUG_STATS_RL:                Vvel (DYNAMICS)  min= -8.91244092189550E-02
DEBUG_STATS_RL:                Vvel (DYNAMICS)  max=  1.42657505542359E-01
DEBUG_STATS_RL:                Vvel (DYNAMICS) mean=  1.45308125718916E-03
DEBUG_STATS_RL:                Vvel (DYNAMICS) S.D.=  1.37598929601442E-02
DEBUG_STATS_RL:                Wvel (DYNAMICS)  min= -6.24920884109873E-05
DEBUG_STATS_RL:                Wvel (DYNAMICS)  max=  1.27706985377966E-04
DEBUG_STATS_RL:                Wvel (DYNAMICS) mean=  4.25955268920121E-08
DEBUG_STATS_RL:                Wvel (DYNAMICS) S.D.=  9.94335816175437E-06
DEBUG_STATS_RL:               Theta (DYNAMICS)  min= -1.97404895553497E+00
DEBUG_STATS_RL:               Theta (DYNAMICS)  max=  3.04134095726270E+01
DEBUG_STATS_RL:               Theta (DYNAMICS) mean=  3.21908969254549E+00
DEBUG_STATS_RL:               Theta (DYNAMICS) S.D.=  5.87513597722936E+00
DEBUG_STATS_RL:                Salt (DYNAMICS)  min= -2.25514051876985E-17
DEBUG_STATS_RL:                Salt (DYNAMICS)  max=  3.74645032723757E+01
DEBUG_STATS_RL:                Salt (DYNAMICS) mean=  1.88449186218897E+01
DEBUG_STATS_RL:                Salt (DYNAMICS) S.D.=  1.73004397792868E+01
DEBUG_STATS_RL:                  Gu (DYNAMICS)  min= -1.25272097983621E-01
DEBUG_STATS_RL:                  Gu (DYNAMICS)  max=  1.69528974430148E-01
DEBUG_STATS_RL:                  Gu (DYNAMICS) mean=  5.29677697841943E-03
DEBUG_STATS_RL:                  Gu (DYNAMICS) S.D.=  2.16758440291863E-02
DEBUG_STATS_RL:                  Gv (DYNAMICS)  min= -9.05266437897200E-02
DEBUG_STATS_RL:                  Gv (DYNAMICS)  max=  1.44835018601090E-01
DEBUG_STATS_RL:                  Gv (DYNAMICS) mean=  3.89940564948765E-03
DEBUG_STATS_RL:                  Gv (DYNAMICS) S.D.=  1.54031550218804E-02
DEBUG_STATS_RL:               GuNm1 (DYNAMICS)  min= -9.71597247887393E-06
DEBUG_STATS_RL:               GuNm1 (DYNAMICS)  max=  9.14671891257580E-06
DEBUG_STATS_RL:               GuNm1 (DYNAMICS) mean= -2.54986043358077E-09
DEBUG_STATS_RL:               GuNm1 (DYNAMICS) S.D.=  1.18744473870559E-06
DEBUG_STATS_RL:               GvNm1 (DYNAMICS)  min= -9.67459425912540E-06
DEBUG_STATS_RL:               GvNm1 (DYNAMICS)  max=  1.61668292628733E-05
DEBUG_STATS_RL:               GvNm1 (DYNAMICS) mean=  7.42748095825883E-07
DEBUG_STATS_RL:               GvNm1 (DYNAMICS) S.D.=  2.62843164305014E-06
DEBUG_STATS_RL:               GtNm1 (DYNAMICS)  min= -5.68728073978929E-06
DEBUG_STATS_RL:               GtNm1 (DYNAMICS)  max=  3.02724286565560E-06
DEBUG_STATS_RL:               GtNm1 (DYNAMICS) mean=  1.86021850478239E-09
DEBUG_STATS_RL:               GtNm1 (DYNAMICS) S.D.=  1.79667405801819E-07
DEBUG_STATS_RL:               GsNm1 (DYNAMICS)  min= -5.64877282159403E-07
DEBUG_STATS_RL:               GsNm1 (DYNAMICS)  max=  3.72596645230566E-07
DEBUG_STATS_RL:               GsNm1 (DYNAMICS) mean= -2.75776478701196E-10
DEBUG_STATS_RL:               GsNm1 (DYNAMICS) S.D.=  1.78619516275442E-08
DEBUG_STATS_RL:    cg2d_b (SOLVE_FOR_PRESSURE)  min= -2.06573124530882E+04
DEBUG_STATS_RL:    cg2d_b (SOLVE_FOR_PRESSURE)  max=  2.59019547387421E+04
DEBUG_STATS_RL:    cg2d_b (SOLVE_FOR_PRESSURE) mean=  4.02552986649573E+00
DEBUG_STATS_RL:    cg2d_b (SOLVE_FOR_PRESSURE) S.D.=  3.83039999504371E+03
 cg2d: Sum(rhs),rhsMax =   3.59783720376825E-01  1.70130973780018E+00
(PID.TID 0000.0001)  cg2d: iter=     1 ; resid.=  7.52908063390128E-02
(PID.TID 0000.0001)  cg2d: iter=     2 ; resid.=  4.94164017807558E-02
(PID.TID 0000.0001)  cg2d: iter=     3 ; resid.=  5.60839659373996E-02
(PID.TID 0000.0001)  cg2d: iter=     4 ; resid.=  5.42251456669057E-02
(PID.TID 0000.0001)  cg2d: iter=     5 ; resid.=  5.15506499390050E-02
(PID.TID 0000.0001)  cg2d: iter=     6 ; resid.=  4.46798430910284E-02
(PID.TID 0000.0001)  cg2d: iter=     7 ; resid.=  3.56023252892138E-02
(PID.TID 0000.0001)  cg2d: iter=     8 ; resid.=  2.71662240895809E-02
(PID.TID 0000.0001)  cg2d: iter=     9 ; resid.=  2.03709783932981E-02
(PID.TID 0000.0001)  cg2d: iter=    10 ; resid.=  1.59242631103134E-02
(PID.TID 0000.0001)  cg2d: iter=    11 ; resid.=  1.23605959728290E-02
(PID.TID 0000.0001)  cg2d: iter=    12 ; resid.=  1.00360575554670E-02
(PID.TID 0000.0001)  cg2d: iter=    13 ; resid.=  7.86331829162476E-03
(PID.TID 0000.0001)  cg2d: iter=    14 ; resid.=  7.08059760223102E-03
(PID.TID 0000.0001)  cg2d: iter=    15 ; resid.=  6.42128100454420E-03
(PID.TID 0000.0001)  cg2d: iter=    16 ; resid.=  5.30179849872597E-03
(PID.TID 0000.0001)  cg2d: iter=    17 ; resid.=  4.76492613714180E-03
(PID.TID 0000.0001)  cg2d: iter=    18 ; resid.=  4.52267182528821E-03
(PID.TID 0000.0001)  cg2d: iter=    19 ; resid.=  3.52995482595306E-03
(PID.TID 0000.0001)  cg2d: iter=    20 ; resid.=  2.57587056412720E-03
(PID.TID 0000.0001)  cg2d: iter=    21 ; resid.=  2.02013468126972E-03
(PID.TID 0000.0001)  cg2d: iter=    22 ; resid.=  1.74271857915455E-03
(PID.TID 0000.0001)  cg2d: iter=    23 ; resid.=  1.43845905201902E-03
(PID.TID 0000.0001)  cg2d: iter=    24 ; resid.=  1.22577300021523E-03
(PID.TID 0000.0001)  cg2d: iter=    25 ; resid.=  1.03767713244822E-03
(PID.TID 0000.0001)  cg2d: iter=    26 ; resid.=  8.29643530677861E-04
(PID.TID 0000.0001)  cg2d: iter=    27 ; resid.=  6.98469478886343E-04
(PID.TID 0000.0001)  cg2d: iter=    28 ; resid.=  5.83184700227020E-04
(PID.TID 0000.0001)  cg2d: iter=    29 ; resid.=  4.30605925969502E-04
(PID.TID 0000.0001)  cg2d: iter=    30 ; resid.=  3.28309978450491E-04
(PID.TID 0000.0001)  cg2d: iter=    31 ; resid.=  2.85590673182903E-04
(PID.TID 0000.0001)  cg2d: iter=    32 ; resid.=  2.21735493869216E-04
(PID.TID 0000.0001)  cg2d: iter=    33 ; resid.=  1.76217320091966E-04
(PID.TID 0000.0001)  cg2d: iter=    34 ; resid.=  1.47157528304417E-04
(PID.TID 0000.0001)  cg2d: iter=    35 ; resid.=  1.16816648530374E-04
(PID.TID 0000.0001)  cg2d: iter=    36 ; resid.=  9.61596236563588E-05
(PID.TID 0000.0001)  cg2d: iter=    37 ; resid.=  8.25652706739812E-05
(PID.TID 0000.0001)  cg2d: iter=    38 ; resid.=  7.65166220663154E-05
(PID.TID 0000.0001)  cg2d: iter=    39 ; resid.=  6.23115012235491E-05
(PID.TID 0000.0001)  cg2d: iter=    40 ; resid.=  5.07364211793769E-05
(PID.TID 0000.0001)  cg2d: iter=    41 ; resid.=  4.07528758444378E-05
(PID.TID 0000.0001)  cg2d: iter=    42 ; resid.=  3.30622610298867E-05
(PID.TID 0000.0001)  cg2d: iter=    43 ; resid.=  2.79731059176407E-05
(PID.TID 0000.0001)  cg2d: iter=    44 ; resid.=  2.26158105336244E-05
(PID.TID 0000.0001)  cg2d: iter=    45 ; resid.=  1.76645645119147E-05
(PID.TID 0000.0001)  cg2d: iter=    46 ; resid.=  1.43175803140196E-05
(PID.TID 0000.0001)  cg2d: iter=    47 ; resid.=  1.20074868031590E-05
(PID.TID 0000.0001)  cg2d: iter=    48 ; resid.=  1.01859980354971E-05
(PID.TID 0000.0001)  cg2d: iter=    49 ; resid.=  8.54903755779561E-06
(PID.TID 0000.0001)  cg2d: iter=    50 ; resid.=  7.30367104110741E-06
(PID.TID 0000.0001)  cg2d: iter=    51 ; resid.=  6.30099341093379E-06
(PID.TID 0000.0001)  cg2d: iter=    52 ; resid.=  5.07089083042922E-06
(PID.TID 0000.0001)  cg2d: iter=    53 ; resid.=  4.48010805827530E-06
(PID.TID 0000.0001)  cg2d: iter=    54 ; resid.=  3.81380776274522E-06
(PID.TID 0000.0001)  cg2d: iter=    55 ; resid.=  3.02288147510111E-06
(PID.TID 0000.0001)  cg2d: iter=    56 ; resid.=  2.76040722726952E-06
(PID.TID 0000.0001)  cg2d: iter=    57 ; resid.=  2.47216967616536E-06
(PID.TID 0000.0001)  cg2d: iter=    58 ; resid.=  2.01559292975368E-06
(PID.TID 0000.0001)  cg2d: iter=    59 ; resid.=  1.65783410320385E-06
(PID.TID 0000.0001)  cg2d: iter=    60 ; resid.=  1.32490339031683E-06
(PID.TID 0000.0001)  cg2d: iter=    61 ; resid.=  1.08066614938602E-06
(PID.TID 0000.0001)  cg2d: iter=    62 ; resid.=  9.00442995316720E-07
(PID.TID 0000.0001)  cg2d: iter=    63 ; resid.=  6.91906581665359E-07
(PID.TID 0000.0001)  cg2d: iter=    64 ; resid.=  5.96764971498418E-07
(PID.TID 0000.0001)  cg2d: iter=    65 ; resid.=  5.19139803948753E-07
(PID.TID 0000.0001)  cg2d: iter=    66 ; resid.=  4.52864590131604E-07
(PID.TID 0000.0001)  cg2d: iter=    67 ; resid.=  3.53853259812258E-07
(PID.TID 0000.0001)  cg2d: iter=    68 ; resid.=  2.72122670242912E-07
(PID.TID 0000.0001)  cg2d: iter=    69 ; resid.=  2.42040789650815E-07
(PID.TID 0000.0001)  cg2d: iter=    70 ; resid.=  2.12749478197137E-07
(PID.TID 0000.0001)  cg2d: iter=    71 ; resid.=  1.95069946201273E-07
(PID.TID 0000.0001)  cg2d: iter=    72 ; resid.=  1.73690057211134E-07
(PID.TID 0000.0001)  cg2d: iter=    73 ; resid.=  1.53419962577150E-07
(PID.TID 0000.0001)  cg2d: iter=    74 ; resid.=  1.38409303126643E-07
(PID.TID 0000.0001)  cg2d: iter=    75 ; resid.=  1.14614569016082E-07
(PID.TID 0000.0001)  cg2d: iter=    76 ; resid.=  9.61025887755296E-08
(PID.TID 0000.0001)  cg2d: iter=    77 ; resid.=  6.84862609754585E-08
(PID.TID 0000.0001)  cg2d: iter=    78 ; resid.=  4.88579492315921E-08
(PID.TID 0000.0001)  cg2d: iter=    79 ; resid.=  3.79859389619476E-08
(PID.TID 0000.0001)  cg2d: iter=    80 ; resid.=  2.91919181510377E-08
(PID.TID 0000.0001)  cg2d: iter=    81 ; resid.=  2.13545034847787E-08
(PID.TID 0000.0001)  cg2d: iter=    82 ; resid.=  1.53622265841193E-08
(PID.TID 0000.0001)  cg2d: iter=    83 ; resid.=  1.23119142921395E-08
(PID.TID 0000.0001)  cg2d: iter=    84 ; resid.=  1.05218677746353E-08
(PID.TID 0000.0001)  cg2d: iter=    85 ; resid.=  7.81633017320375E-09
(PID.TID 0000.0001)  cg2d: iter=    86 ; resid.=  5.56313315135130E-09
(PID.TID 0000.0001)  cg2d: iter=    87 ; resid.=  3.95059111776029E-09
(PID.TID 0000.0001)  cg2d: iter=    88 ; resid.=  2.95360537983549E-09
(PID.TID 0000.0001)  cg2d: iter=    89 ; resid.=  2.46692944363936E-09
(PID.TID 0000.0001)  cg2d: iter=    90 ; resid.=  2.16836895337753E-09
(PID.TID 0000.0001)  cg2d: iter=    91 ; resid.=  1.78345072429280E-09
(PID.TID 0000.0001)  cg2d: iter=    92 ; resid.=  1.31570397863193E-09
(PID.TID 0000.0001)  cg2d: iter=    93 ; resid.=  9.12255081076329E-10
(PID.TID 0000.0001)  cg2d: iter=    94 ; resid.=  7.31423994770160E-10
(PID.TID 0000.0001)  cg2d: iter=    95 ; resid.=  6.05223394568926E-10
(PID.TID 0000.0001)  cg2d: iter=    96 ; resid.=  4.79473331051274E-10
(PID.TID 0000.0001)  cg2d: iter=    97 ; resid.=  3.36614020239905E-10
(PID.TID 0000.0001)  cg2d: iter=    98 ; resid.=  2.29303755850958E-10
(PID.TID 0000.0001)  cg2d: iter=    99 ; resid.=  1.57076632628849E-10
(PID.TID 0000.0001)  cg2d: iter=   100 ; resid.=  1.21574148816227E-10
(PID.TID 0000.0001)  cg2d: iter=   101 ; resid.=  9.92846052076976E-11
(PID.TID 0000.0001)  cg2d: iter=   102 ; resid.=  7.45050018823697E-11
(PID.TID 0000.0001)  cg2d: iter=   103 ; resid.=  5.58279773343237E-11
(PID.TID 0000.0001)  cg2d: iter=   104 ; resid.=  4.32492508425687E-11
(PID.TID 0000.0001)  cg2d: iter=   105 ; resid.=  3.59279100029491E-11
(PID.TID 0000.0001)  cg2d: iter=   106 ; resid.=  3.02202933534142E-11
(PID.TID 0000.0001)  cg2d: iter=   107 ; resid.=  2.35069302842635E-11
(PID.TID 0000.0001)  cg2d: iter=   108 ; resid.=  1.77004900398555E-11
(PID.TID 0000.0001)  cg2d: iter=   109 ; resid.=  1.42581539103174E-11
(PID.TID 0000.0001)  cg2d: iter=   110 ; resid.=  1.33895348314724E-11
(PID.TID 0000.0001)  cg2d: iter=   111 ; resid.=  1.04400682444946E-11
(PID.TID 0000.0001)  cg2d: iter=   112 ; resid.=  8.14016325664641E-12
(PID.TID 0000.0001)  cg2d: iter=   113 ; resid.=  6.46640394565676E-12
(PID.TID 0000.0001)  cg2d: iter=   114 ; resid.=  5.19537579192989E-12
(PID.TID 0000.0001)  cg2d: iter=   115 ; resid.=  4.42459017903167E-12
(PID.TID 0000.0001)  cg2d: iter=   116 ; resid.=  3.66440994657837E-12
(PID.TID 0000.0001)  cg2d: iter=   117 ; resid.=  3.05220684578328E-12
(PID.TID 0000.0001)  cg2d: iter=   118 ; resid.=  2.46565258725644E-12
(PID.TID 0000.0001)  cg2d: iter=   119 ; resid.=  2.03371429728390E-12
(PID.TID 0000.0001)  cg2d: iter=   120 ; resid.=  1.74182021878448E-12
(PID.TID 0000.0001)  cg2d: iter=   121 ; resid.=  1.38454076762187E-12
(PID.TID 0000.0001)  cg2d: iter=   122 ; resid.=  1.07023326794098E-12
(PID.TID 0000.0001)  cg2d: iter=   123 ; resid.=  8.48059313228257E-13
(PID.TID 0000.0001)  cg2d: iter=   124 ; resid.=  6.64447850659425E-13
(PID.TID 0000.0001)  cg2d: iter=   125 ; resid.=  5.25944483252623E-13
(PID.TID 0000.0001)  cg2d: iter=   126 ; resid.=  3.82022316555630E-13
(PID.TID 0000.0001)  cg2d: iter=   127 ; resid.=  2.50090185358809E-13
(PID.TID 0000.0001)  cg2d: iter=   128 ; resid.=  1.54861188171146E-13
(PID.TID 0000.0001)  cg2d: iter=   129 ; resid.=  9.98934292156185E-14
DEBUG_STATS_RL:    cg2d_x (SOLVE_FOR_PRESSURE)  min= -1.87636011408930E+01
DEBUG_STATS_RL:    cg2d_x (SOLVE_FOR_PRESSURE)  max=  8.81392900352312E+00
DEBUG_STATS_RL:    cg2d_x (SOLVE_FOR_PRESSURE) mean= -1.82166646194210E+00
DEBUG_STATS_RL:    cg2d_x (SOLVE_FOR_PRESSURE) S.D.=  7.13381269588194E+00
(PID.TID 0000.0001)      cg2d_init_res =   2.65712282103398E-01
(PID.TID 0000.0001)      cg2d_iters(min,last) =      -1     129
(PID.TID 0000.0001)      cg2d_last_res =   9.98934292156185E-14
(PID.TID 0000.0001) // =======================================================
(PID.TID 0000.0001) // Begin MONITOR dynamic field statistics
(PID.TID 0000.0001) // =======================================================
(PID.TID 0000.0001) %MON time_tsnumber                =                    56
(PID.TID 0000.0001) %MON time_secondsf                =   4.8384000000000E+06
(PID.TID 0000.0001) %MON dynstat_eta_max              =   8.9846371085868E-01
(PID.TID 0000.0001) %MON dynstat_eta_min              =  -1.9127014414775E+00
(PID.TID 0000.0001) %MON dynstat_eta_mean             =  -4.2001412664639E-03
(PID.TID 0000.0001) %MON dynstat_eta_sd               =   6.3507950293944E-01
(PID.TID 0000.0001) %MON dynstat_eta_del2             =   2.3438115684711E-03
(PID.TID 0000.0001) %MON dynstat_uvel_max             =   1.6383745704243E-01
(PID.TID 0000.0001) %MON dynstat_uvel_min             =  -1.2528232033565E-01
(PID.TID 0000.0001) %MON dynstat_uvel_mean            =   2.2769555717700E-03
(PID.TID 0000.0001) %MON dynstat_uvel_sd              =   1.3170032281075E-02
(PID.TID 0000.0001) %MON dynstat_uvel_del2            =   7.9770660350050E-05
(PID.TID 0000.0001) %MON dynstat_vvel_max             =   1.4276927672345E-01
(PID.TID 0000.0001) %MON dynstat_vvel_min             =  -8.9153297090444E-02
(PID.TID 0000.0001) %MON dynstat_vvel_mean            =  -1.7544942513308E-05
(PID.TID 0000.0001) %MON dynstat_vvel_sd              =   8.2692427753744E-03
(PID.TID 0000.0001) %MON dynstat_vvel_del2            =   7.0906725530540E-05
(PID.TID 0000.0001) %MON dynstat_wvel_max             =   1.2152804401733E-04
(PID.TID 0000.0001) %MON dynstat_wvel_min             =  -6.4607166547540E-05
(PID.TID 0000.0001) %MON dynstat_wvel_mean            =   1.0961555445917E-22
(PID.TID 0000.0001) %MON dynstat_wvel_sd              =   1.1129011209714E-05
(PID.TID 0000.0001) %MON dynstat_wvel_del2            =   1.1836137178477E-07
(PID.TID 0000.0001) %MON dynstat_theta_max            =   3.0413409572627E+01
(PID.TID 0000.0001) %MON dynstat_theta_min            =  -1.9740489555350E+00
(PID.TID 0000.0001) %MON dynstat_theta_mean           =   3.6230591522889E+00
(PID.TID 0000.0001) %MON dynstat_theta_sd             =   4.4226937139368E+00
(PID.TID 0000.0001) %MON dynstat_theta_del2           =   4.8513843660678E-03
(PID.TID 0000.0001) %MON dynstat_salt_max             =   3.7464503272376E+01
(PID.TID 0000.0001) %MON dynstat_salt_min             =   2.9862407003998E+01
(PID.TID 0000.0001) %MON dynstat_salt_mean            =   3.4717997115499E+01
(PID.TID 0000.0001) %MON dynstat_salt_sd              =   2.9643304221503E-01
(PID.TID 0000.0001) %MON dynstat_salt_del2            =   9.8964704267906E-04
(PID.TID 0000.0001) %MON dynstat_sst_max              =   3.0413409572627E+01
(PID.TID 0000.0001) %MON dynstat_sst_min              =  -1.9740489555350E+00
(PID.TID 0000.0001) %MON dynstat_sst_mean             =   1.8966896318885E+01
(PID.TID 0000.0001) %MON dynstat_sst_sd               =   9.0451483362096E+00
(PID.TID 0000.0001) %MON dynstat_sst_del2             =   2.7842710964252E-02
(PID.TID 0000.0001) %MON dynstat_sss_max              =   3.7444929259040E+01
(PID.TID 0000.0001) %MON dynstat_sss_min              =   2.9862407003998E+01
(PID.TID 0000.0001) %MON dynstat_sss_mean             =   3.4841760673184E+01
(PID.TID 0000.0001) %MON dynstat_sss_sd               =   9.7942662460722E-01
(PID.TID 0000.0001) %MON dynstat_sss_del2             =   7.9732229137556E-03
(PID.TID 0000.0001) %MON forcing_qnet_max             =   3.3047072347005E+02
(PID.TID 0000.0001) %MON forcing_qnet_min             =  -1.6984117635091E+02
(PID.TID 0000.0001) %MON forcing_qnet_mean            =  -1.1731855982677E+01
(PID.TID 0000.0001) %MON forcing_qnet_sd              =   6.5966939273954E+01
(PID.TID 0000.0001) %MON forcing_qnet_del2            =   8.9973155248247E-01
(PID.TID 0000.0001) %MON forcing_qsw_max              =   0.0000000000000E+00
(PID.TID 0000.0001) %MON forcing_qsw_min              =   0.0000000000000E+00
(PID.TID 0000.0001) %MON forcing_qsw_mean             =   0.0000000000000E+00
(PID.TID 0000.0001) %MON forcing_qsw_sd               =   0.0000000000000E+00
(PID.TID 0000.0001) %MON forcing_qsw_del2             =   0.0000000000000E+00
(PID.TID 0000.0001) %MON forcing_empmr_max            =   6.9223948647353E-05
(PID.TID 0000.0001) %MON forcing_empmr_min            =  -7.5280825721317E-05
(PID.TID 0000.0001) %MON forcing_empmr_mean           =   8.1250967116582E-07
(PID.TID 0000.0001) %MON forcing_empmr_sd             =   2.7185457124815E-05
(PID.TID 0000.0001) %MON forcing_empmr_del2           =   3.5320365580887E-07
(PID.TID 0000.0001) %MON forcing_fu_max               =   3.1872308254242E-01
(PID.TID 0000.0001) %MON forcing_fu_min               =  -2.6957864562670E-01
(PID.TID 0000.0001) %MON forcing_fu_mean              =   1.8572737511220E-02
(PID.TID 0000.0001) %MON forcing_fu_sd                =   9.4029223939401E-02
(PID.TID 0000.0001) %MON forcing_fu_del2              =   7.0568353900108E-04
(PID.TID 0000.0001) %MON forcing_fv_max               =   1.5834051370621E-01
(PID.TID 0000.0001) %MON forcing_fv_min               =  -1.8481889367104E-01
(PID.TID 0000.0001) %MON forcing_fv_mean              =  -7.3210084406550E-03
(PID.TID 0000.0001) %MON forcing_fv_sd                =   4.2536292965649E-02
(PID.TID 0000.0001) %MON forcing_fv_del2              =   4.8118856330786E-04
(PID.TID 0000.0001) %MON trAdv_CFL_u_max              =   4.4880083852342E-02
(PID.TID 0000.0001) %MON trAdv_CFL_v_max              =   2.7534215772230E-02
(PID.TID 0000.0001) %MON trAdv_CFL_w_max              =   3.3100881323818E-02
(PID.TID 0000.0001) %MON advcfl_uvel_max              =   4.2832822318308E-02
(PID.TID 0000.0001) %MON advcfl_vvel_max              =   2.7737780723454E-02
(PID.TID 0000.0001) %MON advcfl_wvel_max              =   3.6183441352457E-02
(PID.TID 0000.0001) %MON advcfl_W_hf_max              =   4.3937035927984E-02
(PID.TID 0000.0001) %MON pe_b_mean                    =   5.1612677312753E-04
(PID.TID 0000.0001) %MON ke_max                       =   1.5025378343973E-02
(PID.TID 0000.0001) %MON ke_mean                      =   1.1185534193230E-04
(PID.TID 0000.0001) %MON ke_vol                       =   1.3226782436723E+18
(PID.TID 0000.0001) %MON vort_r_min                   =  -4.2383779820023E-07
(PID.TID 0000.0001) %MON vort_r_max                   =   3.7006122866845E-07
(PID.TID 0000.0001) %MON vort_a_mean                  =  -2.5274807004435E-05
(PID.TID 0000.0001) %MON vort_a_sd                    =   7.3604666316188E-05
(PID.TID 0000.0001) %MON vort_p_mean                  =  -3.1845655304281E-05
(PID.TID 0000.0001) %MON vort_p_sd                    =   1.3162499277543E-04
(PID.TID 0000.0001) %MON surfExpan_theta_mean         =   3.0777699768147E-07
(PID.TID 0000.0001) %MON surfExpan_salt_mean          =  -3.8340405571299E-08
(PID.TID 0000.0001) // =======================================================
(PID.TID 0000.0001) // End MONITOR dynamic field statistics
(PID.TID 0000.0001) // =======================================================
 EXTERNAL_FIELDS_LOAD,        56 : iP,iLd,i0,i1=    2    3    2    3 ; Wght=  0.6333333333  0.3666666667
 EXTERNAL_FIELDS_LOAD: (fu0,1),fu,fv= -1.4435E-02 -2.7199E-02 -1.9115E-02 -1.1381E-02
 EXTERNAL_FIELDS_LOAD: SST,SSS,Q,E-P= -4.0427E-01  3.4479E+01  2.3128E+02  8.6352E-06
DEBUG_STATS_RL:          Uvel (THERMODYNAMICS)  min= -1.25282320335654E-01
DEBUG_STATS_RL:          Uvel (THERMODYNAMICS)  max=  1.63837457042429E-01
DEBUG_STATS_RL:          Uvel (THERMODYNAMICS) mean=  5.35640409690768E-03
DEBUG_STATS_RL:          Uvel (THERMODYNAMICS) S.D.=  2.12996819996872E-02
DEBUG_STATS_RL:          Vvel (THERMODYNAMICS)  min= -8.91532970904443E-02
DEBUG_STATS_RL:          Vvel (THERMODYNAMICS)  max=  1.42769276723450E-01
DEBUG_STATS_RL:          Vvel (THERMODYNAMICS) mean=  1.36364215858887E-03
DEBUG_STATS_RL:          Vvel (THERMODYNAMICS) S.D.=  1.37175484633493E-02
DEBUG_STATS_RL:          Wvel (THERMODYNAMICS)  min= -6.46071665475401E-05
DEBUG_STATS_RL:          Wvel (THERMODYNAMICS)  max=  1.21528044017325E-04
DEBUG_STATS_RL:          Wvel (THERMODYNAMICS) mean=  2.53727219645065E-08
DEBUG_STATS_RL:          Wvel (THERMODYNAMICS) S.D.=  9.87267225020563E-06
DEBUG_STATS_RL:         Theta (THERMODYNAMICS)  min= -1.97253252577588E+00
DEBUG_STATS_RL:         Theta (THERMODYNAMICS)  max=  3.04357225577987E+01
DEBUG_STATS_RL:         Theta (THERMODYNAMICS) mean=  3.21915790136947E+00
DEBUG_STATS_RL:         Theta (THERMODYNAMICS) S.D.=  5.87562373197449E+00
DEBUG_STATS_RL:          Salt (THERMODYNAMICS)  min= -2.25514051876985E-17
DEBUG_STATS_RL:          Salt (THERMODYNAMICS)  max=  3.74652403293038E+01
DEBUG_STATS_RL:          Salt (THERMODYNAMICS) mean=  1.88449053099861E+01
DEBUG_STATS_RL:          Salt (THERMODYNAMICS) S.D.=  1.73004280710683E+01
DEBUG_STATS_RL:         GtNm1 (THERMODYNAMICS)  min= -5.43144829412554E-06
DEBUG_STATS_RL:         GtNm1 (THERMODYNAMICS)  max=  2.85488520295788E-06
DEBUG_STATS_RL:         GtNm1 (THERMODYNAMICS) mean=  1.68258006619209E-09
DEBUG_STATS_RL:         GtNm1 (THERMODYNAMICS) S.D.=  1.77724756613393E-07
DEBUG_STATS_RL:         GsNm1 (THERMODYNAMICS)  min= -5.66594856214909E-07
DEBUG_STATS_RL:         GsNm1 (THERMODYNAMICS)  max=  4.00482916044484E-07
DEBUG_STATS_RL:         GsNm1 (THERMODYNAMICS) mean= -3.34944044428084E-10
DEBUG_STATS_RL:         GsNm1 (THERMODYNAMICS) S.D.=  1.79174926683129E-08
DEBUG_STATS_RL:                EtaN (DYNAMICS)  min= -1.91270144147747E+00
DEBUG_STATS_RL:                EtaN (DYNAMICS)  max=  8.98463710858676E-01
DEBUG_STATS_RL:                EtaN (DYNAMICS) mean= -1.85694848312142E-01
DEBUG_STATS_RL:                EtaN (DYNAMICS) S.D.=  7.27198032200000E-01
DEBUG_STATS_RL:                Uvel (DYNAMICS)  min= -1.25282320335654E-01
DEBUG_STATS_RL:                Uvel (DYNAMICS)  max=  1.63837457042429E-01
DEBUG_STATS_RL:                Uvel (DYNAMICS) mean=  5.35640409690768E-03
DEBUG_STATS_RL:                Uvel (DYNAMICS) S.D.=  2.12996819996872E-02
DEBUG_STATS_RL:                Vvel (DYNAMICS)  min= -8.91532970904443E-02
DEBUG_STATS_RL:                Vvel (DYNAMICS)  max=  1.42769276723450E-01
DEBUG_STATS_RL:                Vvel (DYNAMICS) mean=  1.36364215858887E-03
DEBUG_STATS_RL:                Vvel (DYNAMICS) S.D.=  1.37175484633493E-02
DEBUG_STATS_RL:                Wvel (DYNAMICS)  min= -6.46071665475401E-05
DEBUG_STATS_RL:                Wvel (DYNAMICS)  max=  1.21528044017325E-04
DEBUG_STATS_RL:                Wvel (DYNAMICS) mean=  2.53727219645065E-08
DEBUG_STATS_RL:                Wvel (DYNAMICS) S.D.=  9.87267225020563E-06
DEBUG_STATS_RL:               Theta (DYNAMICS)  min= -1.97253252577588E+00
DEBUG_STATS_RL:               Theta (DYNAMICS)  max=  3.04357225577987E+01
DEBUG_STATS_RL:               Theta (DYNAMICS) mean=  3.21915790136947E+00
DEBUG_STATS_RL:               Theta (DYNAMICS) S.D.=  5.87562373197449E+00
DEBUG_STATS_RL:                Salt (DYNAMICS)  min= -2.25514051876985E-17
DEBUG_STATS_RL:                Salt (DYNAMICS)  max=  3.74652403293038E+01
DEBUG_STATS_RL:                Salt (DYNAMICS) mean=  1.88449053099861E+01
DEBUG_STATS_RL:                Salt (DYNAMICS) S.D.=  1.73004280710683E+01
DEBUG_STATS_RL:                  Gu (DYNAMICS)  min= -1.24783932443003E-01
DEBUG_STATS_RL:                  Gu (DYNAMICS)  max=  1.60810884088771E-01
DEBUG_STATS_RL:                  Gu (DYNAMICS) mean=  5.25325760639977E-03
DEBUG_STATS_RL:                  Gu (DYNAMICS) S.D.=  2.12781786273885E-02
DEBUG_STATS_RL:                  Gv (DYNAMICS)  min= -9.24358029510988E-02
DEBUG_STATS_RL:                  Gv (DYNAMICS)  max=  1.44697443999348E-01
DEBUG_STATS_RL:                  Gv (DYNAMICS) mean=  3.79842597201284E-03
DEBUG_STATS_RL:                  Gv (DYNAMICS) S.D.=  1.53340657439198E-02
DEBUG_STATS_RL:               GuNm1 (DYNAMICS)  min= -9.74825304265091E-06
DEBUG_STATS_RL:               GuNm1 (DYNAMICS)  max=  9.18171105575559E-06
DEBUG_STATS_RL:               GuNm1 (DYNAMICS) mean= -1.70123283912729E-09
DEBUG_STATS_RL:               GuNm1 (DYNAMICS) S.D.=  1.18881889058241E-06
DEBUG_STATS_RL:               GvNm1 (DYNAMICS)  min= -9.71480425816899E-06
DEBUG_STATS_RL:               GvNm1 (DYNAMICS)  max=  1.61115736148843E-05
DEBUG_STATS_RL:               GvNm1 (DYNAMICS) mean=  7.41932382581008E-07
DEBUG_STATS_RL:               GvNm1 (DYNAMICS) S.D.=  2.63196412127381E-06
DEBUG_STATS_RL:               GtNm1 (DYNAMICS)  min= -5.43144829412554E-06
DEBUG_STATS_RL:               GtNm1 (DYNAMICS)  max=  2.85488520295788E-06
DEBUG_STATS_RL:               GtNm1 (DYNAMICS) mean=  1.68258006619209E-09
DEBUG_STATS_RL:               GtNm1 (DYNAMICS) S.D.=  1.77724756613393E-07
DEBUG_STATS_RL:               GsNm1 (DYNAMICS)  min= -5.66594856214909E-07
DEBUG_STATS_RL:               GsNm1 (DYNAMICS)  max=  4.00482916044484E-07
DEBUG_STATS_RL:               GsNm1 (DYNAMICS) mean= -3.34944044428084E-10
DEBUG_STATS_RL:               GsNm1 (DYNAMICS) S.D.=  1.79174926683129E-08
DEBUG_STATS_RL:    cg2d_b (SOLVE_FOR_PRESSURE)  min= -2.06743939380293E+04
DEBUG_STATS_RL:    cg2d_b (SOLVE_FOR_PRESSURE)  max=  2.58049000632730E+04
DEBUG_STATS_RL:    cg2d_b (SOLVE_FOR_PRESSURE) mean=  4.08948971353306E+00
DEBUG_STATS_RL:    cg2d_b (SOLVE_FOR_PRESSURE) S.D.=  3.84942960974514E+03
 cg2d: Sum(rhs),rhsMax =   3.66874844065109E-01  1.69493492685869E+00
(PID.TID 0000.0001)  cg2d: iter=     1 ; resid.=  7.30836601377939E-02
(PID.TID 0000.0001)  cg2d: iter=     2 ; resid.=  4.73580602055555E-02
(PID.TID 0000.0001)  cg2d: iter=     3 ; resid.=  5.18873480996671E-02
(PID.TID 0000.0001)  cg2d: iter=     4 ; resid.=  5.02433263793247E-02
(PID.TID 0000.0001)  cg2d: iter=     5 ; resid.=  4.88047371145785E-02
(PID.TID 0000.0001)  cg2d: iter=     6 ; resid.=  4.23241689347142E-02
(PID.TID 0000.0001)  cg2d: iter=     7 ; resid.=  3.39677497087852E-02
(PID.TID 0000.0001)  cg2d: iter=     8 ; resid.=  2.61374002329579E-02
(PID.TID 0000.0001)  cg2d: iter=     9 ; resid.=  1.96598064549759E-02
(PID.TID 0000.0001)  cg2d: iter=    10 ; resid.=  1.52253204780951E-02
(PID.TID 0000.0001)  cg2d: iter=    11 ; resid.=  1.16829348526799E-02
(PID.TID 0000.0001)  cg2d: iter=    12 ; resid.=  9.55383674265487E-03
(PID.TID 0000.0001)  cg2d: iter=    13 ; resid.=  7.50167206436583E-03
(PID.TID 0000.0001)  cg2d: iter=    14 ; resid.=  6.72880047799549E-03
(PID.TID 0000.0001)  cg2d: iter=    15 ; resid.=  6.07622032043685E-03
(PID.TID 0000.0001)  cg2d: iter=    16 ; resid.=  5.04261218208707E-03
(PID.TID 0000.0001)  cg2d: iter=    17 ; resid.=  4.48927719756168E-03
(PID.TID 0000.0001)  cg2d: iter=    18 ; resid.=  4.28129036375643E-03
(PID.TID 0000.0001)  cg2d: iter=    19 ; resid.=  3.35644463702714E-03
(PID.TID 0000.0001)  cg2d: iter=    20 ; resid.=  2.43996275899553E-03
(PID.TID 0000.0001)  cg2d: iter=    21 ; resid.=  1.90891416947915E-03
(PID.TID 0000.0001)  cg2d: iter=    22 ; resid.=  1.62860947838687E-03
(PID.TID 0000.0001)  cg2d: iter=    23 ; resid.=  1.34809736473372E-03
(PID.TID 0000.0001)  cg2d: iter=    24 ; resid.=  1.16841294097559E-03
(PID.TID 0000.0001)  cg2d: iter=    25 ; resid.=  9.90619738021615E-04
(PID.TID 0000.0001)  cg2d: iter=    26 ; resid.=  7.98815992039819E-04
(PID.TID 0000.0001)  cg2d: iter=    27 ; resid.=  6.80976353167649E-04
(PID.TID 0000.0001)  cg2d: iter=    28 ; resid.=  5.66591380952541E-04
(PID.TID 0000.0001)  cg2d: iter=    29 ; resid.=  4.10770157281264E-04
(PID.TID 0000.0001)  cg2d: iter=    30 ; resid.=  3.10899845443123E-04
(PID.TID 0000.0001)  cg2d: iter=    31 ; resid.=  2.72796282202208E-04
(PID.TID 0000.0001)  cg2d: iter=    32 ; resid.=  2.10098599593332E-04
(PID.TID 0000.0001)  cg2d: iter=    33 ; resid.=  1.66770208203407E-04
(PID.TID 0000.0001)  cg2d: iter=    34 ; resid.=  1.39461077731379E-04
(PID.TID 0000.0001)  cg2d: iter=    35 ; resid.=  1.11707512287895E-04
(PID.TID 0000.0001)  cg2d: iter=    36 ; resid.=  9.30656372802493E-05
(PID.TID 0000.0001)  cg2d: iter=    37 ; resid.=  8.02919922510288E-05
(PID.TID 0000.0001)  cg2d: iter=    38 ; resid.=  7.40786889197496E-05
(PID.TID 0000.0001)  cg2d: iter=    39 ; resid.=  6.08089967192571E-05
(PID.TID 0000.0001)  cg2d: iter=    40 ; resid.=  4.99436173953337E-05
(PID.TID 0000.0001)  cg2d: iter=    41 ; resid.=  4.03003297819545E-05
(PID.TID 0000.0001)  cg2d: iter=    42 ; resid.=  3.22916001400742E-05
(PID.TID 0000.0001)  cg2d: iter=    43 ; resid.=  2.71170579811930E-05
(PID.TID 0000.0001)  cg2d: iter=    44 ; resid.=  2.20656419606092E-05
(PID.TID 0000.0001)  cg2d: iter=    45 ; resid.=  1.74194661364171E-05
(PID.TID 0000.0001)  cg2d: iter=    46 ; resid.=  1.44175782195087E-05
(PID.TID 0000.0001)  cg2d: iter=    47 ; resid.=  1.22581561268741E-05
(PID.TID 0000.0001)  cg2d: iter=    48 ; resid.=  1.04617686478711E-05
(PID.TID 0000.0001)  cg2d: iter=    49 ; resid.=  8.97646461372973E-06
(PID.TID 0000.0001)  cg2d: iter=    50 ; resid.=  7.67722058354759E-06
(PID.TID 0000.0001)  cg2d: iter=    51 ; resid.=  6.64102077706020E-06
(PID.TID 0000.0001)  cg2d: iter=    52 ; resid.=  5.29998893384847E-06
(PID.TID 0000.0001)  cg2d: iter=    53 ; resid.=  4.64970665179485E-06
(PID.TID 0000.0001)  cg2d: iter=    54 ; resid.=  3.99234957970385E-06
(PID.TID 0000.0001)  cg2d: iter=    55 ; resid.=  3.18583959492591E-06
(PID.TID 0000.0001)  cg2d: iter=    56 ; resid.=  2.90983078947850E-06
(PID.TID 0000.0001)  cg2d: iter=    57 ; resid.=  2.59818682357649E-06
(PID.TID 0000.0001)  cg2d: iter=    58 ; resid.=  2.12377256013308E-06
(PID.TID 0000.0001)  cg2d: iter=    59 ; resid.=  1.77652755330547E-06
(PID.TID 0000.0001)  cg2d: iter=    60 ; resid.=  1.40163415763794E-06
(PID.TID 0000.0001)  cg2d: iter=    61 ; resid.=  1.11533811539139E-06
(PID.TID 0000.0001)  cg2d: iter=    62 ; resid.=  9.21736262691309E-07
(PID.TID 0000.0001)  cg2d: iter=    63 ; resid.=  7.00571071463636E-07
(PID.TID 0000.0001)  cg2d: iter=    64 ; resid.=  6.05080887756962E-07
(PID.TID 0000.0001)  cg2d: iter=    65 ; resid.=  5.33814591008403E-07
(PID.TID 0000.0001)  cg2d: iter=    66 ; resid.=  4.72562834815522E-07
(PID.TID 0000.0001)  cg2d: iter=    67 ; resid.=  3.68925559817340E-07
(PID.TID 0000.0001)  cg2d: iter=    68 ; resid.=  2.84400221108315E-07
(PID.TID 0000.0001)  cg2d: iter=    69 ; resid.=  2.53992870390059E-07
(PID.TID 0000.0001)  cg2d: iter=    70 ; resid.=  2.17298143367032E-07
(PID.TID 0000.0001)  cg2d: iter=    71 ; resid.=  1.98783815720901E-07
(PID.TID 0000.0001)  cg2d: iter=    72 ; resid.=  1.77072542240720E-07
(PID.TID 0000.0001)  cg2d: iter=    73 ; resid.=  1.54843552512663E-07
(PID.TID 0000.0001)  cg2d: iter=    74 ; resid.=  1.40444323683632E-07
(PID.TID 0000.0001)  cg2d: iter=    75 ; resid.=  1.13381305886654E-07
(PID.TID 0000.0001)  cg2d: iter=    76 ; resid.=  9.38026909249886E-08
(PID.TID 0000.0001)  cg2d: iter=    77 ; resid.=  6.59930458838532E-08
(PID.TID 0000.0001)  cg2d: iter=    78 ; resid.=  4.64380318698423E-08
(PID.TID 0000.0001)  cg2d: iter=    79 ; resid.=  3.51194796880241E-08
(PID.TID 0000.0001)  cg2d: iter=    80 ; resid.=  2.67089483667047E-08
(PID.TID 0000.0001)  cg2d: iter=    81 ; resid.=  1.91417647439314E-08
(PID.TID 0000.0001)  cg2d: iter=    82 ; resid.=  1.34672686598425E-08
(PID.TID 0000.0001)  cg2d: iter=    83 ; resid.=  1.08616205551428E-08
(PID.TID 0000.0001)  cg2d: iter=    84 ; resid.=  9.52328928634710E-09
(PID.TID 0000.0001)  cg2d: iter=    85 ; resid.=  7.01068910049656E-09
(PID.TID 0000.0001)  cg2d: iter=    86 ; resid.=  4.95876658011054E-09
(PID.TID 0000.0001)  cg2d: iter=    87 ; resid.=  3.47322310456269E-09
(PID.TID 0000.0001)  cg2d: iter=    88 ; resid.=  2.56348309256808E-09
(PID.TID 0000.0001)  cg2d: iter=    89 ; resid.=  2.06086574244916E-09
(PID.TID 0000.0001)  cg2d: iter=    90 ; resid.=  1.76968101095232E-09
(PID.TID 0000.0001)  cg2d: iter=    91 ; resid.=  1.45923121386338E-09
(PID.TID 0000.0001)  cg2d: iter=    92 ; resid.=  1.10684905410842E-09
(PID.TID 0000.0001)  cg2d: iter=    93 ; resid.=  7.87464761457481E-10
(PID.TID 0000.0001)  cg2d: iter=    94 ; resid.=  6.43310616315328E-10
(PID.TID 0000.0001)  cg2d: iter=    95 ; resid.=  5.26857255464459E-10
(PID.TID 0000.0001)  cg2d: iter=    96 ; resid.=  4.24013657791782E-10
(PID.TID 0000.0001)  cg2d: iter=    97 ; resid.=  3.07287572501975E-10
(PID.TID 0000.0001)  cg2d: iter=    98 ; resid.=  2.19915925633084E-10
(PID.TID 0000.0001)  cg2d: iter=    99 ; resid.=  1.56385352482346E-10
(PID.TID 0000.0001)  cg2d: iter=   100 ; resid.=  1.24422778974552E-10
(PID.TID 0000.0001)  cg2d: iter=   101 ; resid.=  1.06724318927633E-10
(PID.TID 0000.0001)  cg2d: iter=   102 ; resid.=  8.68144324324722E-11
(PID.TID 0000.0001)  cg2d: iter=   103 ; resid.=  7.31503788334914E-11
(PID.TID 0000.0001)  cg2d: iter=   104 ; resid.=  6.27427461242022E-11
(PID.TID 0000.0001)  cg2d: iter=   105 ; resid.=  5.33607475988176E-11
(PID.TID 0000.0001)  cg2d: iter=   106 ; resid.=  4.51572790695565E-11
(PID.TID 0000.0001)  cg2d: iter=   107 ; resid.=  3.59082882600974E-11
(PID.TID 0000.0001)  cg2d: iter=   108 ; resid.=  2.79183780294693E-11
(PID.TID 0000.0001)  cg2d: iter=   109 ; resid.=  2.26834683747779E-11
(PID.TID 0000.0001)  cg2d: iter=   110 ; resid.=  2.04356588578273E-11
(PID.TID 0000.0001)  cg2d: iter=   111 ; resid.=  1.51404359058242E-11
(PID.TID 0000.0001)  cg2d: iter=   112 ; resid.=  1.16840420077661E-11
(PID.TID 0000.0001)  cg2d: iter=   113 ; resid.=  9.17071586018146E-12
(PID.TID 0000.0001)  cg2d: iter=   114 ; resid.=  7.13406961752046E-12
(PID.TID 0000.0001)  cg2d: iter=   115 ; resid.=  5.82060372535117E-12
(PID.TID 0000.0001)  cg2d: iter=   116 ; resid.=  4.60105920775413E-12
(PID.TID 0000.0001)  cg2d: iter=   117 ; resid.=  3.75722397458238E-12
(PID.TID 0000.0001)  cg2d: iter=   118 ; resid.=  2.94672847907184E-12
(PID.TID 0000.0001)  cg2d: iter=   119 ; resid.=  2.26883717038952E-12
(PID.TID 0000.0001)  cg2d: iter=   120 ; resid.=  1.76553933626643E-12
(PID.TID 0000.0001)  cg2d: iter=   121 ; resid.=  1.33234398493611E-12
(PID.TID 0000.0001)  cg2d: iter=   122 ; resid.=  1.01631262118970E-12
(PID.TID 0000.0001)  cg2d: iter=   123 ; resid.=  7.88212415392656E-13
(PID.TID 0000.0001)  cg2d: iter=   124 ; resid.=  5.88731911368312E-13
(PID.TID 0000.0001)  cg2d: iter=   125 ; resid.=  4.55546475559206E-13
(PID.TID 0000.0001)  cg2d: iter=   126 ; resid.=  3.31848145446179E-13
(PID.TID 0000.0001)  cg2d: iter=   127 ; resid.=  2.28673368836203E-13
(PID.TID 0000.0001)  cg2d: iter=   128 ; resid.=  1.47341968484982E-13
(PID.TID 0000.0001)  cg2d: iter=   129 ; resid.=  9.54564563658573E-14
DEBUG_STATS_RL:    cg2d_x (SOLVE_FOR_PRESSURE)  min= -1.87733746005090E+01
DEBUG_STATS_RL:    cg2d_x (SOLVE_FOR_PRESSURE)  max=  8.93748148343924E+00
DEBUG_STATS_RL:    cg2d_x (SOLVE_FOR_PRESSURE) mean= -1.83287544399074E+00
DEBUG_STATS_RL:    cg2d_x (SOLVE_FOR_PRESSURE) S.D.=  7.18892082497491E+00
(PID.TID 0000.0001)      cg2d_init_res =   2.63506574242592E-01
(PID.TID 0000.0001)      cg2d_iters(min,last) =      -1     129
(PID.TID 0000.0001)      cg2d_last_res =   9.54564563658573E-14
(PID.TID 0000.0001) // =======================================================
(PID.TID 0000.0001) // Begin MONITOR dynamic field statistics
(PID.TID 0000.0001) // =======================================================
(PID.TID 0000.0001) %MON time_tsnumber                =                    57
(PID.TID 0000.0001) %MON time_secondsf                =   4.9248000000000E+06
(PID.TID 0000.0001) %MON dynstat_eta_max              =   9.1105825519248E-01
(PID.TID 0000.0001) %MON dynstat_eta_min              =  -1.9136977166676E+00
(PID.TID 0000.0001) %MON dynstat_eta_mean             =  -4.2668754360881E-03
(PID.TID 0000.0001) %MON dynstat_eta_sd               =   6.4096140023075E-01
(PID.TID 0000.0001) %MON dynstat_eta_del2             =   2.3564772323764E-03
(PID.TID 0000.0001) %MON dynstat_uvel_max             =   1.5762030460090E-01
(PID.TID 0000.0001) %MON dynstat_uvel_min             =  -1.2469014120814E-01
(PID.TID 0000.0001) %MON dynstat_uvel_mean            =   2.2693407769316E-03
(PID.TID 0000.0001) %MON dynstat_uvel_sd              =   1.2952704456670E-02
(PID.TID 0000.0001) %MON dynstat_uvel_del2            =   7.8962752103226E-05
(PID.TID 0000.0001) %MON dynstat_vvel_max             =   1.4238132668170E-01
(PID.TID 0000.0001) %MON dynstat_vvel_min             =  -9.0836008109663E-02
(PID.TID 0000.0001) %MON dynstat_vvel_mean            =  -1.6013825432000E-05
(PID.TID 0000.0001) %MON dynstat_vvel_sd              =   8.2569545218794E-03
(PID.TID 0000.0001) %MON dynstat_vvel_del2            =   7.0687712259770E-05
(PID.TID 0000.0001) %MON dynstat_wvel_max             =   1.1562032675146E-04
(PID.TID 0000.0001) %MON dynstat_wvel_min             =  -6.5840340715765E-05
(PID.TID 0000.0001) %MON dynstat_wvel_mean            =   5.1458986488626E-23
(PID.TID 0000.0001) %MON dynstat_wvel_sd              =   1.1069272779566E-05
(PID.TID 0000.0001) %MON dynstat_wvel_del2            =   1.1772573325219E-07
(PID.TID 0000.0001) %MON dynstat_theta_max            =   3.0435722557799E+01
(PID.TID 0000.0001) %MON dynstat_theta_min            =  -1.9725325257759E+00
(PID.TID 0000.0001) %MON dynstat_theta_mean           =   3.6231170457951E+00
(PID.TID 0000.0001) %MON dynstat_theta_sd             =   4.4229050038530E+00
(PID.TID 0000.0001) %MON dynstat_theta_del2           =   4.8613859833065E-03
(PID.TID 0000.0001) %MON dynstat_salt_max             =   3.7465240329304E+01
(PID.TID 0000.0001) %MON dynstat_salt_min             =   2.9864107422175E+01
(PID.TID 0000.0001) %MON dynstat_salt_mean            =   3.4717998831225E+01
(PID.TID 0000.0001) %MON dynstat_salt_sd              =   2.9644220134328E-01
(PID.TID 0000.0001) %MON dynstat_salt_del2            =   9.8975204941839E-04
(PID.TID 0000.0001) %MON dynstat_sst_max              =   3.0435722557799E+01
(PID.TID 0000.0001) %MON dynstat_sst_min              =  -1.9725325257759E+00
(PID.TID 0000.0001) %MON dynstat_sst_mean             =   1.8971989021172E+01
(PID.TID 0000.0001) %MON dynstat_sst_sd               =   9.0499234381344E+00
(PID.TID 0000.0001) %MON dynstat_sst_del2             =   2.7900980586422E-02
(PID.TID 0000.0001) %MON dynstat_sss_max              =   3.7445751999763E+01
(PID.TID 0000.0001) %MON dynstat_sss_min              =   2.9864107422175E+01
(PID.TID 0000.0001) %MON dynstat_sss_mean             =   3.4841365385176E+01
(PID.TID 0000.0001) %MON dynstat_sss_sd               =   9.7972588579068E-01
(PID.TID 0000.0001) %MON dynstat_sss_del2             =   7.9815613851614E-03
(PID.TID 0000.0001) %MON forcing_qnet_max             =   3.2767257181803E+02
(PID.TID 0000.0001) %MON forcing_qnet_min             =  -1.6954189707438E+02
(PID.TID 0000.0001) %MON forcing_qnet_mean            =  -1.1508516483050E+01
(PID.TID 0000.0001) %MON forcing_qnet_sd              =   6.4697646918086E+01
(PID.TID 0000.0001) %MON forcing_qnet_del2            =   8.9565534558300E-01
(PID.TID 0000.0001) %MON forcing_qsw_max              =   0.0000000000000E+00
(PID.TID 0000.0001) %MON forcing_qsw_min              =   0.0000000000000E+00
(PID.TID 0000.0001) %MON forcing_qsw_mean             =   0.0000000000000E+00
(PID.TID 0000.0001) %MON forcing_qsw_sd               =   0.0000000000000E+00
(PID.TID 0000.0001) %MON forcing_qsw_del2             =   0.0000000000000E+00
(PID.TID 0000.0001) %MON forcing_empmr_max            =   6.9218192303803E-05
(PID.TID 0000.0001) %MON forcing_empmr_min            =  -7.5680005314401E-05
(PID.TID 0000.0001) %MON forcing_empmr_mean           =   7.9941974029146E-07
(PID.TID 0000.0001) %MON forcing_empmr_sd             =   2.7118041416458E-05
(PID.TID 0000.0001) %MON forcing_empmr_del2           =   3.5326953117768E-07
(PID.TID 0000.0001) %MON forcing_fu_max               =   3.2066449820995E-01
(PID.TID 0000.0001) %MON forcing_fu_min               =  -2.7496327509483E-01
(PID.TID 0000.0001) %MON forcing_fu_mean              =   1.8666937100678E-02
(PID.TID 0000.0001) %MON forcing_fu_sd                =   9.4247901717010E-02
(PID.TID 0000.0001) %MON forcing_fu_del2              =   7.0585629130029E-04
(PID.TID 0000.0001) %MON forcing_fv_max               =   1.5726317167282E-01
(PID.TID 0000.0001) %MON forcing_fv_min               =  -1.8333285748959E-01
(PID.TID 0000.0001) %MON forcing_fv_mean              =  -7.3314367906246E-03
(PID.TID 0000.0001) %MON forcing_fv_sd                =   4.2374687785746E-02
(PID.TID 0000.0001) %MON forcing_fv_del2              =   4.7761157425794E-04
(PID.TID 0000.0001) %MON trAdv_CFL_u_max              =   4.2841521970866E-02
(PID.TID 0000.0001) %MON trAdv_CFL_v_max              =   2.7555788642200E-02
(PID.TID 0000.0001) %MON trAdv_CFL_w_max              =   3.0755925149589E-02
(PID.TID 0000.0001) %MON advcfl_uvel_max              =   4.1207441952541E-02
(PID.TID 0000.0001) %MON advcfl_vvel_max              =   2.7662408252313E-02
(PID.TID 0000.0001) %MON advcfl_wvel_max              =   3.3102962027290E-02
(PID.TID 0000.0001) %MON advcfl_W_hf_max              =   4.0196453890280E-02
(PID.TID 0000.0001) %MON pe_b_mean                    =   5.2573174121776E-04
(PID.TID 0000.0001) %MON ke_max                       =   1.4458137892681E-02
(PID.TID 0000.0001) %MON ke_mean                      =   1.0916918346741E-04
(PID.TID 0000.0001) %MON ke_vol                       =   1.3226782436723E+18
(PID.TID 0000.0001) %MON vort_r_min                   =  -4.1252798025098E-07
(PID.TID 0000.0001) %MON vort_r_max                   =   3.6957661063159E-07
(PID.TID 0000.0001) %MON vort_a_mean                  =  -2.5274807004546E-05
(PID.TID 0000.0001) %MON vort_a_sd                    =   7.3604664336418E-05
(PID.TID 0000.0001) %MON vort_p_mean                  =  -3.1845655304422E-05
(PID.TID 0000.0001) %MON vort_p_sd                    =   1.3162503224317E-04
(PID.TID 0000.0001) %MON surfExpan_theta_mean         =   2.8022467863116E-07
(PID.TID 0000.0001) %MON surfExpan_salt_mean          =  -3.4794647484844E-08
(PID.TID 0000.0001) // =======================================================
(PID.TID 0000.0001) // End MONITOR dynamic field statistics
(PID.TID 0000.0001) // =======================================================
 EXTERNAL_FIELDS_LOAD,        57 : iP,iLd,i0,i1=    2    3    2    3 ; Wght=  0.6000000000  0.4000000000
 EXTERNAL_FIELDS_LOAD: (fu0,1),fu,fv= -1.4435E-02 -2.7199E-02 -1.9540E-02 -1.0813E-02
 EXTERNAL_FIELDS_LOAD: SST,SSS,Q,E-P= -3.9268E-01  3.4484E+01  2.3045E+02  8.6586E-06
DEBUG_STATS_RL:          Uvel (THERMODYNAMICS)  min= -1.24690141208142E-01
DEBUG_STATS_RL:          Uvel (THERMODYNAMICS)  max=  1.57620304600898E-01
DEBUG_STATS_RL:          Uvel (THERMODYNAMICS) mean=  5.30691044410142E-03
DEBUG_STATS_RL:          Uvel (THERMODYNAMICS) S.D.=  2.09032324239521E-02
DEBUG_STATS_RL:          Vvel (THERMODYNAMICS)  min= -9.08360081096634E-02
DEBUG_STATS_RL:          Vvel (THERMODYNAMICS)  max=  1.42381326681700E-01
DEBUG_STATS_RL:          Vvel (THERMODYNAMICS) mean=  1.26122372052980E-03
DEBUG_STATS_RL:          Vvel (THERMODYNAMICS) S.D.=  1.36805389903044E-02
DEBUG_STATS_RL:          Wvel (THERMODYNAMICS)  min= -6.58403407157651E-05
DEBUG_STATS_RL:          Wvel (THERMODYNAMICS)  max=  1.15620326751456E-04
DEBUG_STATS_RL:          Wvel (THERMODYNAMICS) mean=  4.92164000853921E-09
DEBUG_STATS_RL:          Wvel (THERMODYNAMICS) S.D.=  9.82202038580082E-06
DEBUG_STATS_RL:         Theta (THERMODYNAMICS)  min= -1.97102697185789E+00
DEBUG_STATS_RL:         Theta (THERMODYNAMICS)  max=  3.04585558534466E+01
DEBUG_STATS_RL:         Theta (THERMODYNAMICS) mean=  3.21923361518016E+00
DEBUG_STATS_RL:         Theta (THERMODYNAMICS) S.D.=  5.87609552702309E+00
DEBUG_STATS_RL:          Salt (THERMODYNAMICS)  min= -2.25514051876985E-17
DEBUG_STATS_RL:          Salt (THERMODYNAMICS)  max=  3.74658905141154E+01
DEBUG_STATS_RL:          Salt (THERMODYNAMICS) mean=  1.88448905232031E+01
DEBUG_STATS_RL:          Salt (THERMODYNAMICS) S.D.=  1.73004150176569E+01
DEBUG_STATS_RL:         GtNm1 (THERMODYNAMICS)  min= -5.64564401625552E-06
DEBUG_STATS_RL:         GtNm1 (THERMODYNAMICS)  max=  3.02019511648351E-06
DEBUG_STATS_RL:         GtNm1 (THERMODYNAMICS) mean=  1.70144156925264E-09
DEBUG_STATS_RL:         GtNm1 (THERMODYNAMICS) S.D.=  1.76046538401213E-07
DEBUG_STATS_RL:         GsNm1 (THERMODYNAMICS)  min= -5.61092867425686E-07
DEBUG_STATS_RL:         GsNm1 (THERMODYNAMICS)  max=  3.71416547847524E-07
DEBUG_STATS_RL:         GsNm1 (THERMODYNAMICS) mean= -3.83339886097758E-10
DEBUG_STATS_RL:         GsNm1 (THERMODYNAMICS) S.D.=  1.74879282599330E-08
DEBUG_STATS_RL:                EtaN (DYNAMICS)  min= -1.91369771666763E+00
DEBUG_STATS_RL:                EtaN (DYNAMICS)  max=  9.11058255192484E-01
DEBUG_STATS_RL:                EtaN (DYNAMICS) mean= -1.86837456064296E-01
DEBUG_STATS_RL:                EtaN (DYNAMICS) S.D.=  7.32815578488783E-01
DEBUG_STATS_RL:                Uvel (DYNAMICS)  min= -1.24690141208142E-01
DEBUG_STATS_RL:                Uvel (DYNAMICS)  max=  1.57620304600898E-01
DEBUG_STATS_RL:                Uvel (DYNAMICS) mean=  5.30691044410142E-03
DEBUG_STATS_RL:                Uvel (DYNAMICS) S.D.=  2.09032324239521E-02
DEBUG_STATS_RL:                Vvel (DYNAMICS)  min= -9.08360081096634E-02
DEBUG_STATS_RL:                Vvel (DYNAMICS)  max=  1.42381326681700E-01
DEBUG_STATS_RL:                Vvel (DYNAMICS) mean=  1.26122372052980E-03
DEBUG_STATS_RL:                Vvel (DYNAMICS) S.D.=  1.36805389903044E-02
DEBUG_STATS_RL:                Wvel (DYNAMICS)  min= -6.58403407157651E-05
DEBUG_STATS_RL:                Wvel (DYNAMICS)  max=  1.15620326751456E-04
DEBUG_STATS_RL:                Wvel (DYNAMICS) mean=  4.92164000853921E-09
DEBUG_STATS_RL:                Wvel (DYNAMICS) S.D.=  9.82202038580082E-06
DEBUG_STATS_RL:               Theta (DYNAMICS)  min= -1.97102697185789E+00
DEBUG_STATS_RL:               Theta (DYNAMICS)  max=  3.04585558534466E+01
DEBUG_STATS_RL:               Theta (DYNAMICS) mean=  3.21923361518016E+00
DEBUG_STATS_RL:               Theta (DYNAMICS) S.D.=  5.87609552702309E+00
DEBUG_STATS_RL:                Salt (DYNAMICS)  min= -2.25514051876985E-17
DEBUG_STATS_RL:                Salt (DYNAMICS)  max=  3.74658905141154E+01
DEBUG_STATS_RL:                Salt (DYNAMICS) mean=  1.88448905232031E+01
DEBUG_STATS_RL:                Salt (DYNAMICS) S.D.=  1.73004150176569E+01
DEBUG_STATS_RL:                  Gu (DYNAMICS)  min= -1.24105768803950E-01
DEBUG_STATS_RL:                  Gu (DYNAMICS)  max=  1.51451774945551E-01
DEBUG_STATS_RL:                  Gu (DYNAMICS) mean=  5.22054252412705E-03
DEBUG_STATS_RL:                  Gu (DYNAMICS) S.D.=  2.09322439948642E-02
DEBUG_STATS_RL:                  Gv (DYNAMICS)  min= -9.38452829561161E-02
DEBUG_STATS_RL:                  Gv (DYNAMICS)  max=  1.44069170027809E-01
DEBUG_STATS_RL:                  Gv (DYNAMICS) mean=  3.68895721608076E-03
DEBUG_STATS_RL:                  Gv (DYNAMICS) S.D.=  1.52563637412571E-02
DEBUG_STATS_RL:               GuNm1 (DYNAMICS)  min= -9.77536077884085E-06
DEBUG_STATS_RL:               GuNm1 (DYNAMICS)  max=  9.21005644016766E-06
DEBUG_STATS_RL:               GuNm1 (DYNAMICS) mean= -9.18280335464263E-10
DEBUG_STATS_RL:               GuNm1 (DYNAMICS) S.D.=  1.19011128676178E-06
DEBUG_STATS_RL:               GvNm1 (DYNAMICS)  min= -9.75727682177706E-06
DEBUG_STATS_RL:               GvNm1 (DYNAMICS)  max=  1.60562572117080E-05
DEBUG_STATS_RL:               GvNm1 (DYNAMICS) mean=  7.41099864292932E-07
DEBUG_STATS_RL:               GvNm1 (DYNAMICS) S.D.=  2.63492149496826E-06
DEBUG_STATS_RL:               GtNm1 (DYNAMICS)  min= -5.64564401625552E-06
DEBUG_STATS_RL:               GtNm1 (DYNAMICS)  max=  3.02019511648351E-06
DEBUG_STATS_RL:               GtNm1 (DYNAMICS) mean=  1.70144156925264E-09
DEBUG_STATS_RL:               GtNm1 (DYNAMICS) S.D.=  1.76046538401213E-07
DEBUG_STATS_RL:               GsNm1 (DYNAMICS)  min= -5.61092867425686E-07
DEBUG_STATS_RL:               GsNm1 (DYNAMICS)  max=  3.71416547847524E-07
DEBUG_STATS_RL:               GsNm1 (DYNAMICS) mean= -3.83339886097758E-10
DEBUG_STATS_RL:               GsNm1 (DYNAMICS) S.D.=  1.74879282599330E-08
DEBUG_STATS_RL:    cg2d_b (SOLVE_FOR_PRESSURE)  min= -2.06613504031517E+04
DEBUG_STATS_RL:    cg2d_b (SOLVE_FOR_PRESSURE)  max=  2.56760300579700E+04
DEBUG_STATS_RL:    cg2d_b (SOLVE_FOR_PRESSURE) mean=  4.15240226346984E+00
DEBUG_STATS_RL:    cg2d_b (SOLVE_FOR_PRESSURE) S.D.=  3.86677198475693E+03
 cg2d: Sum(rhs),rhsMax =   3.74388533516658E-01  1.68647039987052E+00
(PID.TID 0000.0001)  cg2d: iter=     1 ; resid.=  7.09396920673886E-02
(PID.TID 0000.0001)  cg2d: iter=     2 ; resid.=  4.47673731428839E-02
(PID.TID 0000.0001)  cg2d: iter=     3 ; resid.=  4.66922355964240E-02
(PID.TID 0000.0001)  cg2d: iter=     4 ; resid.=  4.53417547341025E-02
(PID.TID 0000.0001)  cg2d: iter=     5 ; resid.=  4.50521905367245E-02
(PID.TID 0000.0001)  cg2d: iter=     6 ; resid.=  3.93078612023627E-02
(PID.TID 0000.0001)  cg2d: iter=     7 ; resid.=  3.18580530811024E-02
(PID.TID 0000.0001)  cg2d: iter=     8 ; resid.=  2.46870180140224E-02
(PID.TID 0000.0001)  cg2d: iter=     9 ; resid.=  1.87373481225127E-02
(PID.TID 0000.0001)  cg2d: iter=    10 ; resid.=  1.44777006433601E-02
(PID.TID 0000.0001)  cg2d: iter=    11 ; resid.=  1.09920329688665E-02
(PID.TID 0000.0001)  cg2d: iter=    12 ; resid.=  9.01463751322580E-03
(PID.TID 0000.0001)  cg2d: iter=    13 ; resid.=  7.09132669517057E-03
(PID.TID 0000.0001)  cg2d: iter=    14 ; resid.=  6.31522923298152E-03
(PID.TID 0000.0001)  cg2d: iter=    15 ; resid.=  5.68616253098855E-03
(PID.TID 0000.0001)  cg2d: iter=    16 ; resid.=  4.72565940179588E-03
(PID.TID 0000.0001)  cg2d: iter=    17 ; resid.=  4.13855133110764E-03
(PID.TID 0000.0001)  cg2d: iter=    18 ; resid.=  3.95243530765968E-03
(PID.TID 0000.0001)  cg2d: iter=    19 ; resid.=  3.15150349757264E-03
(PID.TID 0000.0001)  cg2d: iter=    20 ; resid.=  2.29733990468251E-03
(PID.TID 0000.0001)  cg2d: iter=    21 ; resid.=  1.78863955693511E-03
(PID.TID 0000.0001)  cg2d: iter=    22 ; resid.=  1.51220905040831E-03
(PID.TID 0000.0001)  cg2d: iter=    23 ; resid.=  1.25620766304839E-03
(PID.TID 0000.0001)  cg2d: iter=    24 ; resid.=  1.10174290782846E-03
(PID.TID 0000.0001)  cg2d: iter=    25 ; resid.=  9.34832826372511E-04
(PID.TID 0000.0001)  cg2d: iter=    26 ; resid.=  7.58436761746299E-04
(PID.TID 0000.0001)  cg2d: iter=    27 ; resid.=  6.53783066105709E-04
(PID.TID 0000.0001)  cg2d: iter=    28 ; resid.=  5.46151586657525E-04
(PID.TID 0000.0001)  cg2d: iter=    29 ; resid.=  3.93303830045983E-04
(PID.TID 0000.0001)  cg2d: iter=    30 ; resid.=  2.95517662425675E-04
(PID.TID 0000.0001)  cg2d: iter=    31 ; resid.=  2.60629375551566E-04
(PID.TID 0000.0001)  cg2d: iter=    32 ; resid.=  1.99981381435196E-04
(PID.TID 0000.0001)  cg2d: iter=    33 ; resid.=  1.57567962596118E-04
(PID.TID 0000.0001)  cg2d: iter=    34 ; resid.=  1.31213426800871E-04
(PID.TID 0000.0001)  cg2d: iter=    35 ; resid.=  1.05290301358091E-04
(PID.TID 0000.0001)  cg2d: iter=    36 ; resid.=  8.82189771481253E-05
(PID.TID 0000.0001)  cg2d: iter=    37 ; resid.=  7.63430489302488E-05
(PID.TID 0000.0001)  cg2d: iter=    38 ; resid.=  7.01679367672853E-05
(PID.TID 0000.0001)  cg2d: iter=    39 ; resid.=  5.84890665848260E-05
(PID.TID 0000.0001)  cg2d: iter=    40 ; resid.=  4.86995450669064E-05
(PID.TID 0000.0001)  cg2d: iter=    41 ; resid.=  3.94740890121301E-05
(PID.TID 0000.0001)  cg2d: iter=    42 ; resid.=  3.13672289663741E-05
(PID.TID 0000.0001)  cg2d: iter=    43 ; resid.=  2.60935965436461E-05
(PID.TID 0000.0001)  cg2d: iter=    44 ; resid.=  2.12472018084928E-05
(PID.TID 0000.0001)  cg2d: iter=    45 ; resid.=  1.68011506166579E-05
(PID.TID 0000.0001)  cg2d: iter=    46 ; resid.=  1.41113604170462E-05
(PID.TID 0000.0001)  cg2d: iter=    47 ; resid.=  1.21114636259171E-05
(PID.TID 0000.0001)  cg2d: iter=    48 ; resid.=  1.03875955248060E-05
(PID.TID 0000.0001)  cg2d: iter=    49 ; resid.=  9.07448729908994E-06
(PID.TID 0000.0001)  cg2d: iter=    50 ; resid.=  7.78434242339273E-06
(PID.TID 0000.0001)  cg2d: iter=    51 ; resid.=  6.74863235570231E-06
(PID.TID 0000.0001)  cg2d: iter=    52 ; resid.=  5.35308830043958E-06
(PID.TID 0000.0001)  cg2d: iter=    53 ; resid.=  4.63422371562051E-06
(PID.TID 0000.0001)  cg2d: iter=    54 ; resid.=  3.98977306483084E-06
(PID.TID 0000.0001)  cg2d: iter=    55 ; resid.=  3.18863026674237E-06
(PID.TID 0000.0001)  cg2d: iter=    56 ; resid.=  2.87492962170455E-06
(PID.TID 0000.0001)  cg2d: iter=    57 ; resid.=  2.55991593106870E-06
(PID.TID 0000.0001)  cg2d: iter=    58 ; resid.=  2.10972591891393E-06
(PID.TID 0000.0001)  cg2d: iter=    59 ; resid.=  1.79831543288477E-06
(PID.TID 0000.0001)  cg2d: iter=    60 ; resid.=  1.41457810897374E-06
(PID.TID 0000.0001)  cg2d: iter=    61 ; resid.=  1.11100964596913E-06
(PID.TID 0000.0001)  cg2d: iter=    62 ; resid.=  9.09368408770483E-07
(PID.TID 0000.0001)  cg2d: iter=    63 ; resid.=  6.81142622099070E-07
(PID.TID 0000.0001)  cg2d: iter=    64 ; resid.=  5.80822194160414E-07
(PID.TID 0000.0001)  cg2d: iter=    65 ; resid.=  5.12624790541026E-07
(PID.TID 0000.0001)  cg2d: iter=    66 ; resid.=  4.56967189320055E-07
(PID.TID 0000.0001)  cg2d: iter=    67 ; resid.=  3.57565718385801E-07
(PID.TID 0000.0001)  cg2d: iter=    68 ; resid.=  2.77657850306563E-07
(PID.TID 0000.0001)  cg2d: iter=    69 ; resid.=  2.49035376839818E-07
(PID.TID 0000.0001)  cg2d: iter=    70 ; resid.=  2.08726608220928E-07
(PID.TID 0000.0001)  cg2d: iter=    71 ; resid.=  1.91364230443050E-07
(PID.TID 0000.0001)  cg2d: iter=    72 ; resid.=  1.69980505269489E-07
(PID.TID 0000.0001)  cg2d: iter=    73 ; resid.=  1.47022648531249E-07
(PID.TID 0000.0001)  cg2d: iter=    74 ; resid.=  1.33041596534599E-07
(PID.TID 0000.0001)  cg2d: iter=    75 ; resid.=  1.06258131406588E-07
(PID.TID 0000.0001)  cg2d: iter=    76 ; resid.=  8.83050198978394E-08
(PID.TID 0000.0001)  cg2d: iter=    77 ; resid.=  6.29307441680208E-08
(PID.TID 0000.0001)  cg2d: iter=    78 ; resid.=  4.44146479755525E-08
(PID.TID 0000.0001)  cg2d: iter=    79 ; resid.=  3.32254509002958E-08
(PID.TID 0000.0001)  cg2d: iter=    80 ; resid.=  2.55823528511145E-08
(PID.TID 0000.0001)  cg2d: iter=    81 ; resid.=  1.83203039303635E-08
(PID.TID 0000.0001)  cg2d: iter=    82 ; resid.=  1.27671072691763E-08
(PID.TID 0000.0001)  cg2d: iter=    83 ; resid.=  1.03219909062827E-08
(PID.TID 0000.0001)  cg2d: iter=    84 ; resid.=  9.09585907887365E-09
(PID.TID 0000.0001)  cg2d: iter=    85 ; resid.=  6.54729688867730E-09
(PID.TID 0000.0001)  cg2d: iter=    86 ; resid.=  4.60239376440558E-09
(PID.TID 0000.0001)  cg2d: iter=    87 ; resid.=  3.20929092825111E-09
(PID.TID 0000.0001)  cg2d: iter=    88 ; resid.=  2.37156408922797E-09
(PID.TID 0000.0001)  cg2d: iter=    89 ; resid.=  1.89587025138111E-09
(PID.TID 0000.0001)  cg2d: iter=    90 ; resid.=  1.64581248991816E-09
(PID.TID 0000.0001)  cg2d: iter=    91 ; resid.=  1.39114488731841E-09
(PID.TID 0000.0001)  cg2d: iter=    92 ; resid.=  1.09561146010729E-09
(PID.TID 0000.0001)  cg2d: iter=    93 ; resid.=  8.11001659809875E-10
(PID.TID 0000.0001)  cg2d: iter=    94 ; resid.=  6.84326588680311E-10
(PID.TID 0000.0001)  cg2d: iter=    95 ; resid.=  5.70639932431866E-10
(PID.TID 0000.0001)  cg2d: iter=    96 ; resid.=  4.80323813561291E-10
(PID.TID 0000.0001)  cg2d: iter=    97 ; resid.=  3.65852830075142E-10
(PID.TID 0000.0001)  cg2d: iter=    98 ; resid.=  2.85367962415093E-10
(PID.TID 0000.0001)  cg2d: iter=    99 ; resid.=  2.23648581048242E-10
(PID.TID 0000.0001)  cg2d: iter=   100 ; resid.=  1.94789438444749E-10
(PID.TID 0000.0001)  cg2d: iter=   101 ; resid.=  1.79185676376210E-10
(PID.TID 0000.0001)  cg2d: iter=   102 ; resid.=  1.49612633478381E-10
(PID.TID 0000.0001)  cg2d: iter=   103 ; resid.=  1.24989663607969E-10
(PID.TID 0000.0001)  cg2d: iter=   104 ; resid.=  9.97268572292990E-11
(PID.TID 0000.0001)  cg2d: iter=   105 ; resid.=  7.54008014613403E-11
(PID.TID 0000.0001)  cg2d: iter=   106 ; resid.=  5.73745505478199E-11
(PID.TID 0000.0001)  cg2d: iter=   107 ; resid.=  4.19687015635222E-11
(PID.TID 0000.0001)  cg2d: iter=   108 ; resid.=  3.07932398958025E-11
(PID.TID 0000.0001)  cg2d: iter=   109 ; resid.=  2.37414298449439E-11
(PID.TID 0000.0001)  cg2d: iter=   110 ; resid.=  2.03070423881167E-11
(PID.TID 0000.0001)  cg2d: iter=   111 ; resid.=  1.46822580331144E-11
(PID.TID 0000.0001)  cg2d: iter=   112 ; resid.=  1.11431956141094E-11
(PID.TID 0000.0001)  cg2d: iter=   113 ; resid.=  8.46958690955895E-12
(PID.TID 0000.0001)  cg2d: iter=   114 ; resid.=  6.31564664008596E-12
(PID.TID 0000.0001)  cg2d: iter=   115 ; resid.=  4.95635934763109E-12
(PID.TID 0000.0001)  cg2d: iter=   116 ; resid.=  3.80516701795457E-12
(PID.TID 0000.0001)  cg2d: iter=   117 ; resid.=  3.09964291023818E-12
(PID.TID 0000.0001)  cg2d: iter=   118 ; resid.=  2.45713727701259E-12
(PID.TID 0000.0001)  cg2d: iter=   119 ; resid.=  1.89092235810802E-12
(PID.TID 0000.0001)  cg2d: iter=   120 ; resid.=  1.43836388102934E-12
(PID.TID 0000.0001)  cg2d: iter=   121 ; resid.=  1.08393197428139E-12
(PID.TID 0000.0001)  cg2d: iter=   122 ; resid.=  8.36936911302833E-13
(PID.TID 0000.0001)  cg2d: iter=   123 ; resid.=  6.56642763733752E-13
(PID.TID 0000.0001)  cg2d: iter=   124 ; resid.=  4.90903950219679E-13
(PID.TID 0000.0001)  cg2d: iter=   125 ; resid.=  3.80694641576092E-13
(PID.TID 0000.0001)  cg2d: iter=   126 ; resid.=  2.79958730219263E-13
(PID.TID 0000.0001)  cg2d: iter=   127 ; resid.=  2.02818974473032E-13
(PID.TID 0000.0001)  cg2d: iter=   128 ; resid.=  1.34983451413603E-13
(PID.TID 0000.0001)  cg2d: iter=   129 ; resid.=  8.67515589601200E-14
DEBUG_STATS_RL:    cg2d_x (SOLVE_FOR_PRESSURE)  min= -1.87532161758010E+01
DEBUG_STATS_RL:    cg2d_x (SOLVE_FOR_PRESSURE)  max=  9.05948932741553E+00
DEBUG_STATS_RL:    cg2d_x (SOLVE_FOR_PRESSURE) mean= -1.84297401547713E+00
DEBUG_STATS_RL:    cg2d_x (SOLVE_FOR_PRESSURE) S.D.=  7.23930938253754E+00
(PID.TID 0000.0001)      cg2d_init_res =   2.61311182465374E-01
(PID.TID 0000.0001)      cg2d_iters(min,last) =      -1     129
(PID.TID 0000.0001)      cg2d_last_res =   8.67515589601200E-14
(PID.TID 0000.0001) // =======================================================
(PID.TID 0000.0001) // Begin MONITOR dynamic field statistics
(PID.TID 0000.0001) // =======================================================
(PID.TID 0000.0001) %MON time_tsnumber                =                    58
(PID.TID 0000.0001) %MON time_secondsf                =   5.0112000000000E+06
(PID.TID 0000.0001) %MON dynstat_eta_max              =   9.2349534428288E-01
(PID.TID 0000.0001) %MON dynstat_eta_min              =  -1.9116428313763E+00
(PID.TID 0000.0001) %MON dynstat_eta_mean             =  -4.3325168810483E-03
(PID.TID 0000.0001) %MON dynstat_eta_sd               =   6.4632838344328E-01
(PID.TID 0000.0001) %MON dynstat_eta_del2             =   2.3679962253840E-03
(PID.TID 0000.0001) %MON dynstat_uvel_max             =   1.5135796758964E-01
(PID.TID 0000.0001) %MON dynstat_uvel_min             =  -1.2412765567070E-01
(PID.TID 0000.0001) %MON dynstat_uvel_mean            =   2.2582641613237E-03
(PID.TID 0000.0001) %MON dynstat_uvel_sd              =   1.2757650099705E-02
(PID.TID 0000.0001) %MON dynstat_uvel_del2            =   7.8255728196212E-05
(PID.TID 0000.0001) %MON dynstat_vvel_max             =   1.4149291739601E-01
(PID.TID 0000.0001) %MON dynstat_vvel_min             =  -9.1858515687797E-02
(PID.TID 0000.0001) %MON dynstat_vvel_mean            =  -1.3316305567948E-05
(PID.TID 0000.0001) %MON dynstat_vvel_sd              =   8.2482266914434E-03
(PID.TID 0000.0001) %MON dynstat_vvel_del2            =   7.0561240287945E-05
(PID.TID 0000.0001) %MON dynstat_wvel_max             =   1.1099674333315E-04
(PID.TID 0000.0001) %MON dynstat_wvel_min             =  -6.5924655154607E-05
(PID.TID 0000.0001) %MON dynstat_wvel_mean            =  -1.4156668803557E-22
(PID.TID 0000.0001) %MON dynstat_wvel_sd              =   1.1015891311233E-05
(PID.TID 0000.0001) %MON dynstat_wvel_del2            =   1.1693262266051E-07
(PID.TID 0000.0001) %MON dynstat_theta_max            =   3.0458555853447E+01
(PID.TID 0000.0001) %MON dynstat_theta_min            =  -1.9710269718579E+00
(PID.TID 0000.0001) %MON dynstat_theta_mean           =   3.6231743582267E+00
(PID.TID 0000.0001) %MON dynstat_theta_sd             =   4.4231167120748E+00
(PID.TID 0000.0001) %MON dynstat_theta_del2           =   4.8693265510826E-03
(PID.TID 0000.0001) %MON dynstat_salt_max             =   3.7465890514115E+01
(PID.TID 0000.0001) %MON dynstat_salt_min             =   2.9865750128115E+01
(PID.TID 0000.0001) %MON dynstat_salt_mean            =   3.4718000433116E+01
(PID.TID 0000.0001) %MON dynstat_salt_sd              =   2.9645095611097E-01
(PID.TID 0000.0001) %MON dynstat_salt_del2            =   9.8965433126917E-04
(PID.TID 0000.0001) %MON dynstat_sst_max              =   3.0458555853447E+01
(PID.TID 0000.0001) %MON dynstat_sst_min              =  -1.9710269718579E+00
(PID.TID 0000.0001) %MON dynstat_sst_mean             =   1.8977040652244E+01
(PID.TID 0000.0001) %MON dynstat_sst_sd               =   9.0545847446922E+00
(PID.TID 0000.0001) %MON dynstat_sst_del2             =   2.7943713036374E-02
(PID.TID 0000.0001) %MON dynstat_sss_max              =   3.7446542249017E+01
(PID.TID 0000.0001) %MON dynstat_sss_min              =   2.9865750128115E+01
(PID.TID 0000.0001) %MON dynstat_sss_mean             =   3.4840966413068E+01
(PID.TID 0000.0001) %MON dynstat_sss_sd               =   9.8003257164993E-01
(PID.TID 0000.0001) %MON dynstat_sss_del2             =   7.9878814468063E-03
(PID.TID 0000.0001) %MON forcing_qnet_max             =   3.2487442016602E+02
(PID.TID 0000.0001) %MON forcing_qnet_min             =  -1.6924261779785E+02
(PID.TID 0000.0001) %MON forcing_qnet_mean            =  -1.1285176983424E+01
(PID.TID 0000.0001) %MON forcing_qnet_sd              =   6.3449695075861E+01
(PID.TID 0000.0001) %MON forcing_qnet_del2            =   8.9174766139185E-01
(PID.TID 0000.0001) %MON forcing_qsw_max              =   0.0000000000000E+00
(PID.TID 0000.0001) %MON forcing_qsw_min              =   0.0000000000000E+00
(PID.TID 0000.0001) %MON forcing_qsw_mean             =   0.0000000000000E+00
(PID.TID 0000.0001) %MON forcing_qsw_sd               =   0.0000000000000E+00
(PID.TID 0000.0001) %MON forcing_qsw_del2             =   0.0000000000000E+00
(PID.TID 0000.0001) %MON forcing_empmr_max            =   6.9212435960253E-05
(PID.TID 0000.0001) %MON forcing_empmr_min            =  -7.6079184907485E-05
(PID.TID 0000.0001) %MON forcing_empmr_mean           =   7.8632980941711E-07
(PID.TID 0000.0001) %MON forcing_empmr_sd             =   2.7052915154374E-05
(PID.TID 0000.0001) %MON forcing_empmr_del2           =   3.5339969316782E-07
(PID.TID 0000.0001) %MON forcing_fu_max               =   3.2260591387749E-01
(PID.TID 0000.0001) %MON forcing_fu_min               =  -2.8034790456295E-01
(PID.TID 0000.0001) %MON forcing_fu_mean              =   1.8761136690137E-02
(PID.TID 0000.0001) %MON forcing_fu_sd                =   9.4487425263087E-02
(PID.TID 0000.0001) %MON forcing_fu_del2              =   7.0683773160572E-04
(PID.TID 0000.0001) %MON forcing_fv_max               =   1.5618582963943E-01
(PID.TID 0000.0001) %MON forcing_fv_min               =  -1.8184682130814E-01
(PID.TID 0000.0001) %MON forcing_fv_mean              =  -7.3418651405940E-03
(PID.TID 0000.0001) %MON forcing_fv_sd                =   4.2230357499442E-02
(PID.TID 0000.0001) %MON forcing_fv_del2              =   4.7453329375474E-04
(PID.TID 0000.0001) %MON trAdv_CFL_u_max              =   4.1215811478722E-02
(PID.TID 0000.0001) %MON trAdv_CFL_v_max              =   2.7480910702075E-02
(PID.TID 0000.0001) %MON trAdv_CFL_w_max              =   2.9761580327875E-02
(PID.TID 0000.0001) %MON advcfl_uvel_max              =   3.9570248765203E-02
(PID.TID 0000.0001) %MON advcfl_vvel_max              =   2.7489804576476E-02
(PID.TID 0000.0001) %MON advcfl_wvel_max              =   2.9803601948609E-02
(PID.TID 0000.0001) %MON advcfl_W_hf_max              =   3.6190088080454E-02
(PID.TID 0000.0001) %MON pe_b_mean                    =   5.3457318605002E-04
(PID.TID 0000.0001) %MON ke_max                       =   1.3755605120451E-02
(PID.TID 0000.0001) %MON ke_mean                      =   1.0680333892517E-04
(PID.TID 0000.0001) %MON ke_vol                       =   1.3226782436723E+18
(PID.TID 0000.0001) %MON vort_r_min                   =  -4.0056131488275E-07
(PID.TID 0000.0001) %MON vort_r_max                   =   3.7376786159611E-07
(PID.TID 0000.0001) %MON vort_a_mean                  =  -2.5274807005843E-05
(PID.TID 0000.0001) %MON vort_a_sd                    =   7.3604661640877E-05
(PID.TID 0000.0001) %MON vort_p_mean                  =  -3.1845655306056E-05
(PID.TID 0000.0001) %MON vort_p_sd                    =   1.3162506485015E-04
(PID.TID 0000.0001) %MON surfExpan_theta_mean         =   2.4813815491395E-07
(PID.TID 0000.0001) %MON surfExpan_salt_mean          =  -2.9582154777747E-08
(PID.TID 0000.0001) // =======================================================
(PID.TID 0000.0001) // End MONITOR dynamic field statistics
(PID.TID 0000.0001) // =======================================================
 EXTERNAL_FIELDS_LOAD,        58 : iP,iLd,i0,i1=    2    3    2    3 ; Wght=  0.5666666667  0.4333333333
 EXTERNAL_FIELDS_LOAD: (fu0,1),fu,fv= -1.4435E-02 -2.7199E-02 -1.9966E-02 -1.0244E-02
 EXTERNAL_FIELDS_LOAD: SST,SSS,Q,E-P= -3.8108E-01  3.4490E+01  2.2961E+02  8.6821E-06
DEBUG_STATS_RL:          Uvel (THERMODYNAMICS)  min= -1.24127655670697E-01
DEBUG_STATS_RL:          Uvel (THERMODYNAMICS)  max=  1.51357967589640E-01
DEBUG_STATS_RL:          Uvel (THERMODYNAMICS) mean=  5.26940029689844E-03
DEBUG_STATS_RL:          Uvel (THERMODYNAMICS) S.D.=  2.05588902444071E-02
DEBUG_STATS_RL:          Vvel (THERMODYNAMICS)  min= -9.18585156877968E-02
DEBUG_STATS_RL:          Vvel (THERMODYNAMICS)  max=  1.41492917396012E-01
DEBUG_STATS_RL:          Vvel (THERMODYNAMICS) mean=  1.15116882327010E-03
DEBUG_STATS_RL:          Vvel (THERMODYNAMICS) S.D.=  1.36491374167200E-02
DEBUG_STATS_RL:          Wvel (THERMODYNAMICS)  min= -6.59246551546065E-05
DEBUG_STATS_RL:          Wvel (THERMODYNAMICS)  max=  1.10996743333149E-04
DEBUG_STATS_RL:          Wvel (THERMODYNAMICS) mean= -1.73555464014670E-08
DEBUG_STATS_RL:          Wvel (THERMODYNAMICS) S.D.=  9.78061499970325E-06
DEBUG_STATS_RL:         Theta (THERMODYNAMICS)  min= -1.96952782716789E+00
DEBUG_STATS_RL:         Theta (THERMODYNAMICS)  max=  3.04819272202594E+01
DEBUG_STATS_RL:         Theta (THERMODYNAMICS) mean=  3.21930805578105E+00
DEBUG_STATS_RL:         Theta (THERMODYNAMICS) S.D.=  5.87655950240339E+00
DEBUG_STATS_RL:          Salt (THERMODYNAMICS)  min= -2.25514051876985E-17
DEBUG_STATS_RL:          Salt (THERMODYNAMICS)  max=  3.74664452284789E+01
DEBUG_STATS_RL:          Salt (THERMODYNAMICS) mean=  1.88448734250237E+01
DEBUG_STATS_RL:          Salt (THERMODYNAMICS) S.D.=  1.73003998641175E+01
DEBUG_STATS_RL:         GtNm1 (THERMODYNAMICS)  min= -5.40222038525589E-06
DEBUG_STATS_RL:         GtNm1 (THERMODYNAMICS)  max=  2.85493251993451E-06
DEBUG_STATS_RL:         GtNm1 (THERMODYNAMICS) mean=  1.75080554920457E-09
DEBUG_STATS_RL:         GtNm1 (THERMODYNAMICS) S.D.=  1.74537091819602E-07
DEBUG_STATS_RL:         GsNm1 (THERMODYNAMICS)  min= -6.01320694345453E-07
DEBUG_STATS_RL:         GsNm1 (THERMODYNAMICS)  max=  4.21612733635519E-07
DEBUG_STATS_RL:         GsNm1 (THERMODYNAMICS) mean= -4.25206762574544E-10
DEBUG_STATS_RL:         GsNm1 (THERMODYNAMICS) S.D.=  1.75464301039583E-08
DEBUG_STATS_RL:                EtaN (DYNAMICS)  min= -1.91164283137629E+00
DEBUG_STATS_RL:                EtaN (DYNAMICS)  max=  9.23495344282878E-01
DEBUG_STATS_RL:                EtaN (DYNAMICS) mean= -1.87866872117953E-01
DEBUG_STATS_RL:                EtaN (DYNAMICS) S.D.=  7.37952026762240E-01
DEBUG_STATS_RL:                Uvel (DYNAMICS)  min= -1.24127655670697E-01
DEBUG_STATS_RL:                Uvel (DYNAMICS)  max=  1.51357967589640E-01
DEBUG_STATS_RL:                Uvel (DYNAMICS) mean=  5.26940029689844E-03
DEBUG_STATS_RL:                Uvel (DYNAMICS) S.D.=  2.05588902444071E-02
DEBUG_STATS_RL:                Vvel (DYNAMICS)  min= -9.18585156877968E-02
DEBUG_STATS_RL:                Vvel (DYNAMICS)  max=  1.41492917396012E-01
DEBUG_STATS_RL:                Vvel (DYNAMICS) mean=  1.15116882327010E-03
DEBUG_STATS_RL:                Vvel (DYNAMICS) S.D.=  1.36491374167200E-02
DEBUG_STATS_RL:                Wvel (DYNAMICS)  min= -6.59246551546065E-05
DEBUG_STATS_RL:                Wvel (DYNAMICS)  max=  1.10996743333149E-04
DEBUG_STATS_RL:                Wvel (DYNAMICS) mean= -1.73555464014670E-08
DEBUG_STATS_RL:                Wvel (DYNAMICS) S.D.=  9.78061499970325E-06
DEBUG_STATS_RL:               Theta (DYNAMICS)  min= -1.96952782716789E+00
DEBUG_STATS_RL:               Theta (DYNAMICS)  max=  3.04819272202594E+01
DEBUG_STATS_RL:               Theta (DYNAMICS) mean=  3.21930805578105E+00
DEBUG_STATS_RL:               Theta (DYNAMICS) S.D.=  5.87655950240339E+00
DEBUG_STATS_RL:                Salt (DYNAMICS)  min= -2.25514051876985E-17
DEBUG_STATS_RL:                Salt (DYNAMICS)  max=  3.74664452284789E+01
DEBUG_STATS_RL:                Salt (DYNAMICS) mean=  1.88448734250237E+01
DEBUG_STATS_RL:                Salt (DYNAMICS) S.D.=  1.73003998641175E+01
DEBUG_STATS_RL:                  Gu (DYNAMICS)  min= -1.24070479203537E-01
DEBUG_STATS_RL:                  Gu (DYNAMICS)  max=  1.41804449642882E-01
DEBUG_STATS_RL:                  Gu (DYNAMICS) mean=  5.20159872318894E-03
DEBUG_STATS_RL:                  Gu (DYNAMICS) S.D.=  2.06510533542569E-02
DEBUG_STATS_RL:                  Gv (DYNAMICS)  min= -9.46104454770532E-02
DEBUG_STATS_RL:                  Gv (DYNAMICS)  max=  1.42950911090532E-01
DEBUG_STATS_RL:                  Gv (DYNAMICS) mean=  3.57652197798964E-03
DEBUG_STATS_RL:                  Gv (DYNAMICS) S.D.=  1.51727652252855E-02
DEBUG_STATS_RL:               GuNm1 (DYNAMICS)  min= -9.79849615754674E-06
DEBUG_STATS_RL:               GuNm1 (DYNAMICS)  max=  9.23161549855793E-06
DEBUG_STATS_RL:               GuNm1 (DYNAMICS) mean= -2.01383946056943E-10
DEBUG_STATS_RL:               GuNm1 (DYNAMICS) S.D.=  1.19133911958966E-06
DEBUG_STATS_RL:               GvNm1 (DYNAMICS)  min= -9.80060043334187E-06
DEBUG_STATS_RL:               GvNm1 (DYNAMICS)  max=  1.60023075568330E-05
DEBUG_STATS_RL:               GvNm1 (DYNAMICS) mean=  7.40264434464304E-07
DEBUG_STATS_RL:               GvNm1 (DYNAMICS) S.D.=  2.63726779748754E-06
DEBUG_STATS_RL:               GtNm1 (DYNAMICS)  min= -5.40222038525589E-06
DEBUG_STATS_RL:               GtNm1 (DYNAMICS)  max=  2.85493251993451E-06
DEBUG_STATS_RL:               GtNm1 (DYNAMICS) mean=  1.75080554920457E-09
DEBUG_STATS_RL:               GtNm1 (DYNAMICS) S.D.=  1.74537091819602E-07
DEBUG_STATS_RL:               GsNm1 (DYNAMICS)  min= -6.01320694345453E-07
DEBUG_STATS_RL:               GsNm1 (DYNAMICS)  max=  4.21612733635519E-07
DEBUG_STATS_RL:               GsNm1 (DYNAMICS) mean= -4.25206762574544E-10
DEBUG_STATS_RL:               GsNm1 (DYNAMICS) S.D.=  1.75464301039583E-08
DEBUG_STATS_RL:    cg2d_b (SOLVE_FOR_PRESSURE)  min= -2.06164722801853E+04
DEBUG_STATS_RL:    cg2d_b (SOLVE_FOR_PRESSURE)  max=  2.55240319558473E+04
DEBUG_STATS_RL:    cg2d_b (SOLVE_FOR_PRESSURE) mean=  4.21426751630440E+00
DEBUG_STATS_RL:    cg2d_b (SOLVE_FOR_PRESSURE) S.D.=  3.88224125326874E+03
 cg2d: Sum(rhs),rhsMax =   3.82229160233096E-01  1.67648675755948E+00
(PID.TID 0000.0001)  cg2d: iter=     1 ; resid.=  6.90032314892128E-02
(PID.TID 0000.0001)  cg2d: iter=     2 ; resid.=  4.19174917114458E-02
(PID.TID 0000.0001)  cg2d: iter=     3 ; resid.=  4.08761758827579E-02
(PID.TID 0000.0001)  cg2d: iter=     4 ; resid.=  3.96135263384641E-02
(PID.TID 0000.0001)  cg2d: iter=     5 ; resid.=  4.02297898679315E-02
(PID.TID 0000.0001)  cg2d: iter=     6 ; resid.=  3.56296072613740E-02
(PID.TID 0000.0001)  cg2d: iter=     7 ; resid.=  2.92374947297311E-02
(PID.TID 0000.0001)  cg2d: iter=     8 ; resid.=  2.27581166013633E-02
(PID.TID 0000.0001)  cg2d: iter=     9 ; resid.=  1.75601663265593E-02
(PID.TID 0000.0001)  cg2d: iter=    10 ; resid.=  1.36543895782518E-02
(PID.TID 0000.0001)  cg2d: iter=    11 ; resid.=  1.03001441286513E-02
(PID.TID 0000.0001)  cg2d: iter=    12 ; resid.=  8.43788640493896E-03
(PID.TID 0000.0001)  cg2d: iter=    13 ; resid.=  6.63878892236856E-03
(PID.TID 0000.0001)  cg2d: iter=    14 ; resid.=  5.83898446190134E-03
(PID.TID 0000.0001)  cg2d: iter=    15 ; resid.=  5.25430252753553E-03
(PID.TID 0000.0001)  cg2d: iter=    16 ; resid.=  4.36217919352891E-03
(PID.TID 0000.0001)  cg2d: iter=    17 ; resid.=  3.72889746097855E-03
(PID.TID 0000.0001)  cg2d: iter=    18 ; resid.=  3.53711387390853E-03
(PID.TID 0000.0001)  cg2d: iter=    19 ; resid.=  2.89981081420451E-03
(PID.TID 0000.0001)  cg2d: iter=    20 ; resid.=  2.14000598172669E-03
(PID.TID 0000.0001)  cg2d: iter=    21 ; resid.=  1.65783278006837E-03
(PID.TID 0000.0001)  cg2d: iter=    22 ; resid.=  1.39171568032810E-03
(PID.TID 0000.0001)  cg2d: iter=    23 ; resid.=  1.15706402845282E-03
(PID.TID 0000.0001)  cg2d: iter=    24 ; resid.=  1.02352431582842E-03
(PID.TID 0000.0001)  cg2d: iter=    25 ; resid.=  8.73264215110325E-04
(PID.TID 0000.0001)  cg2d: iter=    26 ; resid.=  7.08503308955503E-04
(PID.TID 0000.0001)  cg2d: iter=    27 ; resid.=  6.15039694748536E-04
(PID.TID 0000.0001)  cg2d: iter=    28 ; resid.=  5.22109601629661E-04
(PID.TID 0000.0001)  cg2d: iter=    29 ; resid.=  3.80013958557681E-04
(PID.TID 0000.0001)  cg2d: iter=    30 ; resid.=  2.83823212951623E-04
(PID.TID 0000.0001)  cg2d: iter=    31 ; resid.=  2.51138311955423E-04
(PID.TID 0000.0001)  cg2d: iter=    32 ; resid.=  1.93233703331063E-04
(PID.TID 0000.0001)  cg2d: iter=    33 ; resid.=  1.49857801969759E-04
(PID.TID 0000.0001)  cg2d: iter=    34 ; resid.=  1.23523137510007E-04
(PID.TID 0000.0001)  cg2d: iter=    35 ; resid.=  9.82463319815482E-05
(PID.TID 0000.0001)  cg2d: iter=    36 ; resid.=  8.16801280543851E-05
(PID.TID 0000.0001)  cg2d: iter=    37 ; resid.=  7.05332234963954E-05
(PID.TID 0000.0001)  cg2d: iter=    38 ; resid.=  6.45801286806867E-05
(PID.TID 0000.0001)  cg2d: iter=    39 ; resid.=  5.49793843357930E-05
(PID.TID 0000.0001)  cg2d: iter=    40 ; resid.=  4.67209093850699E-05
(PID.TID 0000.0001)  cg2d: iter=    41 ; resid.=  3.81733645547717E-05
(PID.TID 0000.0001)  cg2d: iter=    42 ; resid.=  3.02904498852707E-05
(PID.TID 0000.0001)  cg2d: iter=    43 ; resid.=  2.50857106013223E-05
(PID.TID 0000.0001)  cg2d: iter=    44 ; resid.=  2.03591788745433E-05
(PID.TID 0000.0001)  cg2d: iter=    45 ; resid.=  1.59366977728491E-05
(PID.TID 0000.0001)  cg2d: iter=    46 ; resid.=  1.34074988916888E-05
(PID.TID 0000.0001)  cg2d: iter=    47 ; resid.=  1.15201591078531E-05
(PID.TID 0000.0001)  cg2d: iter=    48 ; resid.=  9.89229578688892E-06
(PID.TID 0000.0001)  cg2d: iter=    49 ; resid.=  8.76362565128365E-06
(PID.TID 0000.0001)  cg2d: iter=    50 ; resid.=  7.60565621684353E-06
(PID.TID 0000.0001)  cg2d: iter=    51 ; resid.=  6.65364800141814E-06
(PID.TID 0000.0001)  cg2d: iter=    52 ; resid.=  5.29817720096896E-06
(PID.TID 0000.0001)  cg2d: iter=    53 ; resid.=  4.52086569649782E-06
(PID.TID 0000.0001)  cg2d: iter=    54 ; resid.=  3.86806546220730E-06
(PID.TID 0000.0001)  cg2d: iter=    55 ; resid.=  3.08182426266879E-06
(PID.TID 0000.0001)  cg2d: iter=    56 ; resid.=  2.70400789001153E-06
(PID.TID 0000.0001)  cg2d: iter=    57 ; resid.=  2.38194176285085E-06
(PID.TID 0000.0001)  cg2d: iter=    58 ; resid.=  1.98714565163416E-06
(PID.TID 0000.0001)  cg2d: iter=    59 ; resid.=  1.72898142954335E-06
(PID.TID 0000.0001)  cg2d: iter=    60 ; resid.=  1.37999356929943E-06
(PID.TID 0000.0001)  cg2d: iter=    61 ; resid.=  1.09440988332294E-06
(PID.TID 0000.0001)  cg2d: iter=    62 ; resid.=  8.94117064311136E-07
(PID.TID 0000.0001)  cg2d: iter=    63 ; resid.=  6.64619023251957E-07
(PID.TID 0000.0001)  cg2d: iter=    64 ; resid.=  5.53197880385828E-07
(PID.TID 0000.0001)  cg2d: iter=    65 ; resid.=  4.78549917607830E-07
(PID.TID 0000.0001)  cg2d: iter=    66 ; resid.=  4.21358035950108E-07
(PID.TID 0000.0001)  cg2d: iter=    67 ; resid.=  3.28650194965790E-07
(PID.TID 0000.0001)  cg2d: iter=    68 ; resid.=  2.56803898679724E-07
(PID.TID 0000.0001)  cg2d: iter=    69 ; resid.=  2.31224107416940E-07
(PID.TID 0000.0001)  cg2d: iter=    70 ; resid.=  1.93921084178143E-07
(PID.TID 0000.0001)  cg2d: iter=    71 ; resid.=  1.80609029070282E-07
(PID.TID 0000.0001)  cg2d: iter=    72 ; resid.=  1.61405675215253E-07
(PID.TID 0000.0001)  cg2d: iter=    73 ; resid.=  1.37745904251947E-07
(PID.TID 0000.0001)  cg2d: iter=    74 ; resid.=  1.21851479891091E-07
(PID.TID 0000.0001)  cg2d: iter=    75 ; resid.=  9.63360639074787E-08
(PID.TID 0000.0001)  cg2d: iter=    76 ; resid.=  8.08202356318421E-08
(PID.TID 0000.0001)  cg2d: iter=    77 ; resid.=  5.90921788255182E-08
(PID.TID 0000.0001)  cg2d: iter=    78 ; resid.=  4.22486422160536E-08
(PID.TID 0000.0001)  cg2d: iter=    79 ; resid.=  3.16969544655718E-08
(PID.TID 0000.0001)  cg2d: iter=    80 ; resid.=  2.52358862999563E-08
(PID.TID 0000.0001)  cg2d: iter=    81 ; resid.=  1.85499475116091E-08
(PID.TID 0000.0001)  cg2d: iter=    82 ; resid.=  1.31672401731050E-08
(PID.TID 0000.0001)  cg2d: iter=    83 ; resid.=  1.07260867248081E-08
(PID.TID 0000.0001)  cg2d: iter=    84 ; resid.=  9.33113585641252E-09
(PID.TID 0000.0001)  cg2d: iter=    85 ; resid.=  6.53022458781608E-09
(PID.TID 0000.0001)  cg2d: iter=    86 ; resid.=  4.58792516423494E-09
(PID.TID 0000.0001)  cg2d: iter=    87 ; resid.=  3.22223364734559E-09
(PID.TID 0000.0001)  cg2d: iter=    88 ; resid.=  2.42014320437877E-09
(PID.TID 0000.0001)  cg2d: iter=    89 ; resid.=  1.97187379146715E-09
(PID.TID 0000.0001)  cg2d: iter=    90 ; resid.=  1.78946195176980E-09
(PID.TID 0000.0001)  cg2d: iter=    91 ; resid.=  1.58400094192452E-09
(PID.TID 0000.0001)  cg2d: iter=    92 ; resid.=  1.28350071039612E-09
(PID.TID 0000.0001)  cg2d: iter=    93 ; resid.=  9.72105715354825E-10
(PID.TID 0000.0001)  cg2d: iter=    94 ; resid.=  8.21950288527812E-10
(PID.TID 0000.0001)  cg2d: iter=    95 ; resid.=  6.87326263400482E-10
(PID.TID 0000.0001)  cg2d: iter=    96 ; resid.=  5.93871101692155E-10
(PID.TID 0000.0001)  cg2d: iter=    97 ; resid.=  4.53632738154234E-10
(PID.TID 0000.0001)  cg2d: iter=    98 ; resid.=  3.58573294032361E-10
(PID.TID 0000.0001)  cg2d: iter=    99 ; resid.=  2.83056270546477E-10
(PID.TID 0000.0001)  cg2d: iter=   100 ; resid.=  2.45137112430219E-10
(PID.TID 0000.0001)  cg2d: iter=   101 ; resid.=  2.21525098437381E-10
(PID.TID 0000.0001)  cg2d: iter=   102 ; resid.=  1.76274680824322E-10
(PID.TID 0000.0001)  cg2d: iter=   103 ; resid.=  1.38320436147884E-10
(PID.TID 0000.0001)  cg2d: iter=   104 ; resid.=  1.02990148676990E-10
(PID.TID 0000.0001)  cg2d: iter=   105 ; resid.=  7.41464332488189E-11
(PID.TID 0000.0001)  cg2d: iter=   106 ; resid.=  5.42529630632136E-11
(PID.TID 0000.0001)  cg2d: iter=   107 ; resid.=  3.79572218823435E-11
(PID.TID 0000.0001)  cg2d: iter=   108 ; resid.=  2.68303421721870E-11
(PID.TID 0000.0001)  cg2d: iter=   109 ; resid.=  1.99263586946661E-11
(PID.TID 0000.0001)  cg2d: iter=   110 ; resid.=  1.66714250168869E-11
(PID.TID 0000.0001)  cg2d: iter=   111 ; resid.=  1.22129193484538E-11
(PID.TID 0000.0001)  cg2d: iter=   112 ; resid.=  9.17691873928593E-12
(PID.TID 0000.0001)  cg2d: iter=   113 ; resid.=  6.73902033892281E-12
(PID.TID 0000.0001)  cg2d: iter=   114 ; resid.=  4.87165323296850E-12
(PID.TID 0000.0001)  cg2d: iter=   115 ; resid.=  3.72456151107900E-12
(PID.TID 0000.0001)  cg2d: iter=   116 ; resid.=  2.79750062405594E-12
(PID.TID 0000.0001)  cg2d: iter=   117 ; resid.=  2.23093469867848E-12
(PID.TID 0000.0001)  cg2d: iter=   118 ; resid.=  1.75032433530301E-12
(PID.TID 0000.0001)  cg2d: iter=   119 ; resid.=  1.35285714991799E-12
(PID.TID 0000.0001)  cg2d: iter=   120 ; resid.=  1.01141954279067E-12
(PID.TID 0000.0001)  cg2d: iter=   121 ; resid.=  7.42294198423623E-13
(PID.TID 0000.0001)  cg2d: iter=   122 ; resid.=  5.52261343110086E-13
(PID.TID 0000.0001)  cg2d: iter=   123 ; resid.=  4.26499948453288E-13
(PID.TID 0000.0001)  cg2d: iter=   124 ; resid.=  3.22503070662763E-13
(PID.TID 0000.0001)  cg2d: iter=   125 ; resid.=  2.52720491414083E-13
(PID.TID 0000.0001)  cg2d: iter=   126 ; resid.=  1.88147360325323E-13
(PID.TID 0000.0001)  cg2d: iter=   127 ; resid.=  1.41142357303259E-13
(PID.TID 0000.0001)  cg2d: iter=   128 ; resid.=  9.43826743481500E-14
DEBUG_STATS_RL:    cg2d_x (SOLVE_FOR_PRESSURE)  min= -1.87062326728000E+01
DEBUG_STATS_RL:    cg2d_x (SOLVE_FOR_PRESSURE)  max=  9.17599472816015E+00
DEBUG_STATS_RL:    cg2d_x (SOLVE_FOR_PRESSURE) mean= -1.85177898228407E+00
DEBUG_STATS_RL:    cg2d_x (SOLVE_FOR_PRESSURE) S.D.=  7.28353590314985E+00
(PID.TID 0000.0001)      cg2d_init_res =   2.59106448878375E-01
(PID.TID 0000.0001)      cg2d_iters(min,last) =      -1     128
(PID.TID 0000.0001)      cg2d_last_res =   9.43826743481500E-14
(PID.TID 0000.0001) // =======================================================
(PID.TID 0000.0001) // Begin MONITOR dynamic field statistics
(PID.TID 0000.0001) // =======================================================
(PID.TID 0000.0001) %MON time_tsnumber                =                    59
(PID.TID 0000.0001) %MON time_secondsf                =   5.0976000000000E+06
(PID.TID 0000.0001) %MON dynstat_eta_max              =   9.3537153192260E-01
(PID.TID 0000.0001) %MON dynstat_eta_min              =  -1.9068534834660E+00
(PID.TID 0000.0001) %MON dynstat_eta_mean             =  -4.3970656013434E-03
(PID.TID 0000.0001) %MON dynstat_eta_sd               =   6.5101124792300E-01
(PID.TID 0000.0001) %MON dynstat_eta_del2             =   2.3783702246942E-03
(PID.TID 0000.0001) %MON dynstat_uvel_max             =   1.4463650841225E-01
(PID.TID 0000.0001) %MON dynstat_uvel_min             =  -1.2443440894013E-01
(PID.TID 0000.0001) %MON dynstat_uvel_mean            =   2.2451713287525E-03
(PID.TID 0000.0001) %MON dynstat_uvel_sd              =   1.2592259024391E-02
(PID.TID 0000.0001) %MON dynstat_uvel_del2            =   7.7681148282530E-05
(PID.TID 0000.0001) %MON dynstat_vvel_max             =   1.4010872077468E-01
(PID.TID 0000.0001) %MON dynstat_vvel_min             =  -9.2209092736565E-02
(PID.TID 0000.0001) %MON dynstat_vvel_mean            =  -9.6852830667865E-06
(PID.TID 0000.0001) %MON dynstat_vvel_sd              =   8.2419421860344E-03
(PID.TID 0000.0001) %MON dynstat_vvel_del2            =   7.0520280871801E-05
(PID.TID 0000.0001) %MON dynstat_wvel_max             =   1.0768432820937E-04
(PID.TID 0000.0001) %MON dynstat_wvel_min             =  -6.4949142747673E-05
(PID.TID 0000.0001) %MON dynstat_wvel_mean            =   4.9125154585253E-23
(PID.TID 0000.0001) %MON dynstat_wvel_sd              =   1.0958730929364E-05
(PID.TID 0000.0001) %MON dynstat_wvel_del2            =   1.1592954110312E-07
(PID.TID 0000.0001) %MON dynstat_theta_max            =   3.0481927220259E+01
(PID.TID 0000.0001) %MON dynstat_theta_min            =  -1.9695278271679E+00
(PID.TID 0000.0001) %MON dynstat_theta_mean           =   3.6232311808941E+00
(PID.TID 0000.0001) %MON dynstat_theta_sd             =   4.4233301897541E+00
(PID.TID 0000.0001) %MON dynstat_theta_del2           =   4.8764193539116E-03
(PID.TID 0000.0001) %MON dynstat_salt_max             =   3.7466445228479E+01
(PID.TID 0000.0001) %MON dynstat_salt_min             =   2.9867362475490E+01
(PID.TID 0000.0001) %MON dynstat_salt_mean            =   3.4718001884996E+01
(PID.TID 0000.0001) %MON dynstat_salt_sd              =   2.9645944643323E-01
(PID.TID 0000.0001) %MON dynstat_salt_del2            =   9.8950961737911E-04
(PID.TID 0000.0001) %MON dynstat_sst_max              =   3.0481927220259E+01
(PID.TID 0000.0001) %MON dynstat_sst_min              =  -1.9695278271679E+00
(PID.TID 0000.0001) %MON dynstat_sst_mean             =   1.8981989628825E+01
(PID.TID 0000.0001) %MON dynstat_sst_sd               =   9.0592620062624E+00
(PID.TID 0000.0001) %MON dynstat_sst_del2             =   2.7985676880055E-02
(PID.TID 0000.0001) %MON dynstat_sss_max              =   3.7447300681086E+01
(PID.TID 0000.0001) %MON dynstat_sss_min              =   2.9867362475490E+01
(PID.TID 0000.0001) %MON dynstat_sss_mean             =   3.4840570490913E+01
(PID.TID 0000.0001) %MON dynstat_sss_sd               =   9.8034414418744E-01
(PID.TID 0000.0001) %MON dynstat_sss_del2             =   7.9943001569997E-03
(PID.TID 0000.0001) %MON forcing_qnet_max             =   3.2207626851400E+02
(PID.TID 0000.0001) %MON forcing_qnet_min             =  -1.6894333852132E+02
(PID.TID 0000.0001) %MON forcing_qnet_mean            =  -1.1061837483797E+01
(PID.TID 0000.0001) %MON forcing_qnet_sd              =   6.2224367755894E+01
(PID.TID 0000.0001) %MON forcing_qnet_del2            =   8.8801072466035E-01
(PID.TID 0000.0001) %MON forcing_qsw_max              =   0.0000000000000E+00
(PID.TID 0000.0001) %MON forcing_qsw_min              =   0.0000000000000E+00
(PID.TID 0000.0001) %MON forcing_qsw_mean             =   0.0000000000000E+00
(PID.TID 0000.0001) %MON forcing_qsw_sd               =   0.0000000000000E+00
(PID.TID 0000.0001) %MON forcing_qsw_del2             =   0.0000000000000E+00
(PID.TID 0000.0001) %MON forcing_empmr_max            =   6.9206679616703E-05
(PID.TID 0000.0001) %MON forcing_empmr_min            =  -7.6478364500569E-05
(PID.TID 0000.0001) %MON forcing_empmr_mean           =   7.7323987854276E-07
(PID.TID 0000.0001) %MON forcing_empmr_sd             =   2.6990094911657E-05
(PID.TID 0000.0001) %MON forcing_empmr_del2           =   3.5359407078538E-07
(PID.TID 0000.0001) %MON forcing_fu_max               =   3.2454732954502E-01
(PID.TID 0000.0001) %MON forcing_fu_min               =  -2.8573253403107E-01
(PID.TID 0000.0001) %MON forcing_fu_mean              =   1.8855336279595E-02
(PID.TID 0000.0001) %MON forcing_fu_sd                =   9.4747636482451E-02
(PID.TID 0000.0001) %MON forcing_fu_del2              =   7.0862449984251E-04
(PID.TID 0000.0001) %MON forcing_fv_max               =   1.5510848760605E-01
(PID.TID 0000.0001) %MON forcing_fv_min               =  -1.8036078512669E-01
(PID.TID 0000.0001) %MON forcing_fv_mean              =  -7.3522934905635E-03
(PID.TID 0000.0001) %MON forcing_fv_sd                =   4.2103479761575E-02
(PID.TID 0000.0001) %MON forcing_fv_del2              =   4.7196348005752E-04
(PID.TID 0000.0001) %MON trAdv_CFL_u_max              =   3.9578285765739E-02
(PID.TID 0000.0001) %MON trAdv_CFL_v_max              =   2.7309439506969E-02
(PID.TID 0000.0001) %MON trAdv_CFL_w_max              =   2.9946852469884E-02
(PID.TID 0000.0001) %MON advcfl_uvel_max              =   3.7813025039554E-02
(PID.TID 0000.0001) %MON advcfl_vvel_max              =   2.7220877372796E-02
(PID.TID 0000.0001) %MON advcfl_wvel_max              =   2.6391219811810E-02
(PID.TID 0000.0001) %MON advcfl_W_hf_max              =   3.2046481200055E-02
(PID.TID 0000.0001) %MON pe_b_mean                    =   5.4234794179871E-04
(PID.TID 0000.0001) %MON ke_max                       =   1.2942529065209E-02
(PID.TID 0000.0001) %MON ke_mean                      =   1.0482520481556E-04
(PID.TID 0000.0001) %MON ke_vol                       =   1.3226782436723E+18
(PID.TID 0000.0001) %MON vort_r_min                   =  -3.8806166860181E-07
(PID.TID 0000.0001) %MON vort_r_max                   =   3.7788081519242E-07
(PID.TID 0000.0001) %MON vort_a_mean                  =  -2.5274807008067E-05
(PID.TID 0000.0001) %MON vort_a_sd                    =   7.3604658476651E-05
(PID.TID 0000.0001) %MON vort_p_mean                  =  -3.1845655308858E-05
(PID.TID 0000.0001) %MON vort_p_sd                    =   1.3162509050788E-04
(PID.TID 0000.0001) %MON surfExpan_theta_mean         =   2.1254359693542E-07
(PID.TID 0000.0001) %MON surfExpan_salt_mean          =  -2.2874520262238E-08
(PID.TID 0000.0001) // =======================================================
(PID.TID 0000.0001) // End MONITOR dynamic field statistics
(PID.TID 0000.0001) // =======================================================
 EXTERNAL_FIELDS_LOAD,        59 : iP,iLd,i0,i1=    2    3    2    3 ; Wght=  0.5333333333  0.4666666667
 EXTERNAL_FIELDS_LOAD: (fu0,1),fu,fv= -1.4435E-02 -2.7199E-02 -2.0391E-02 -9.6754E-03
 EXTERNAL_FIELDS_LOAD: SST,SSS,Q,E-P= -3.6948E-01  3.4495E+01  2.2877E+02  8.7055E-06
DEBUG_STATS_RL:          Uvel (THERMODYNAMICS)  min= -1.24434408940129E-01
DEBUG_STATS_RL:          Uvel (THERMODYNAMICS)  max=  1.44636508412250E-01
DEBUG_STATS_RL:          Uvel (THERMODYNAMICS) mean=  5.24686658636359E-03
DEBUG_STATS_RL:          Uvel (THERMODYNAMICS) S.D.=  2.02794662118438E-02
DEBUG_STATS_RL:          Vvel (THERMODYNAMICS)  min= -9.22090927365652E-02
DEBUG_STATS_RL:          Vvel (THERMODYNAMICS)  max=  1.40108720774680E-01
DEBUG_STATS_RL:          Vvel (THERMODYNAMICS) mean=  1.03880070051096E-03
DEBUG_STATS_RL:          Vvel (THERMODYNAMICS) S.D.=  1.36222213826696E-02
DEBUG_STATS_RL:          Wvel (THERMODYNAMICS)  min= -6.49491427476732E-05
DEBUG_STATS_RL:          Wvel (THERMODYNAMICS)  max=  1.07684328209375E-04
DEBUG_STATS_RL:          Wvel (THERMODYNAMICS) mean= -4.00801638104247E-08
DEBUG_STATS_RL:          Wvel (THERMODYNAMICS) S.D.=  9.73742321730219E-06
DEBUG_STATS_RL:         Theta (THERMODYNAMICS)  min= -1.96803061712634E+00
DEBUG_STATS_RL:         Theta (THERMODYNAMICS)  max=  3.05058452956888E+01
DEBUG_STATS_RL:         Theta (THERMODYNAMICS) mean=  3.21939230543516E+00
DEBUG_STATS_RL:         Theta (THERMODYNAMICS) S.D.=  5.87701844761615E+00
DEBUG_STATS_RL:          Salt (THERMODYNAMICS)  min= -2.25514051876985E-17
DEBUG_STATS_RL:          Salt (THERMODYNAMICS)  max=  3.74668993876952E+01
DEBUG_STATS_RL:          Salt (THERMODYNAMICS) mean=  1.88448555399306E+01
DEBUG_STATS_RL:          Salt (THERMODYNAMICS) S.D.=  1.73003839970420E+01
DEBUG_STATS_RL:         GtNm1 (THERMODYNAMICS)  min= -5.53014645975427E-06
DEBUG_STATS_RL:         GtNm1 (THERMODYNAMICS)  max=  2.95808897232955E-06
DEBUG_STATS_RL:         GtNm1 (THERMODYNAMICS) mean=  1.90589578968456E-09
DEBUG_STATS_RL:         GtNm1 (THERMODYNAMICS) S.D.=  1.72539098180101E-07
DEBUG_STATS_RL:         GsNm1 (THERMODYNAMICS)  min= -5.47578796984178E-07
DEBUG_STATS_RL:         GsNm1 (THERMODYNAMICS)  max=  3.63066850929481E-07
DEBUG_STATS_RL:         GsNm1 (THERMODYNAMICS) mean= -4.57358380034426E-10
DEBUG_STATS_RL:         GsNm1 (THERMODYNAMICS) S.D.=  1.71214139818615E-08
DEBUG_STATS_RL:                EtaN (DYNAMICS)  min= -1.90685348346604E+00
DEBUG_STATS_RL:                EtaN (DYNAMICS)  max=  9.35371531922597E-01
DEBUG_STATS_RL:                EtaN (DYNAMICS) mean= -1.88764422251179E-01
DEBUG_STATS_RL:                EtaN (DYNAMICS) S.D.=  7.42460336712521E-01
DEBUG_STATS_RL:                Uvel (DYNAMICS)  min= -1.24434408940129E-01
DEBUG_STATS_RL:                Uvel (DYNAMICS)  max=  1.44636508412250E-01
DEBUG_STATS_RL:                Uvel (DYNAMICS) mean=  5.24686658636359E-03
DEBUG_STATS_RL:                Uvel (DYNAMICS) S.D.=  2.02794662118438E-02
DEBUG_STATS_RL:                Vvel (DYNAMICS)  min= -9.22090927365652E-02
DEBUG_STATS_RL:                Vvel (DYNAMICS)  max=  1.40108720774680E-01
DEBUG_STATS_RL:                Vvel (DYNAMICS) mean=  1.03880070051096E-03
DEBUG_STATS_RL:                Vvel (DYNAMICS) S.D.=  1.36222213826696E-02
DEBUG_STATS_RL:                Wvel (DYNAMICS)  min= -6.49491427476732E-05
DEBUG_STATS_RL:                Wvel (DYNAMICS)  max=  1.07684328209375E-04
DEBUG_STATS_RL:                Wvel (DYNAMICS) mean= -4.00801638104247E-08
DEBUG_STATS_RL:                Wvel (DYNAMICS) S.D.=  9.73742321730219E-06
DEBUG_STATS_RL:               Theta (DYNAMICS)  min= -1.96803061712634E+00
DEBUG_STATS_RL:               Theta (DYNAMICS)  max=  3.05058452956888E+01
DEBUG_STATS_RL:               Theta (DYNAMICS) mean=  3.21939230543516E+00
DEBUG_STATS_RL:               Theta (DYNAMICS) S.D.=  5.87701844761615E+00
DEBUG_STATS_RL:                Salt (DYNAMICS)  min= -2.25514051876985E-17
DEBUG_STATS_RL:                Salt (DYNAMICS)  max=  3.74668993876952E+01
DEBUG_STATS_RL:                Salt (DYNAMICS) mean=  1.88448555399306E+01
DEBUG_STATS_RL:                Salt (DYNAMICS) S.D.=  1.73003839970420E+01
DEBUG_STATS_RL:                  Gu (DYNAMICS)  min= -1.24348940956077E-01
DEBUG_STATS_RL:                  Gu (DYNAMICS)  max=  1.33476306027174E-01
DEBUG_STATS_RL:                  Gu (DYNAMICS) mean=  5.19831205477803E-03
DEBUG_STATS_RL:                  Gu (DYNAMICS) S.D.=  2.04443356501580E-02
DEBUG_STATS_RL:                  Gv (DYNAMICS)  min= -9.60459975041335E-02
DEBUG_STATS_RL:                  Gv (DYNAMICS)  max=  1.41348707605483E-01
DEBUG_STATS_RL:                  Gv (DYNAMICS) mean=  3.46641267868241E-03
DEBUG_STATS_RL:                  Gv (DYNAMICS) S.D.=  1.50853226215802E-02
DEBUG_STATS_RL:               GuNm1 (DYNAMICS)  min= -9.81877409416889E-06
DEBUG_STATS_RL:               GuNm1 (DYNAMICS)  max=  9.24656160955601E-06
DEBUG_STATS_RL:               GuNm1 (DYNAMICS) mean=  4.61568777982493E-10
DEBUG_STATS_RL:               GuNm1 (DYNAMICS) S.D.=  1.19250335509191E-06
DEBUG_STATS_RL:               GvNm1 (DYNAMICS)  min= -9.84340964110453E-06
DEBUG_STATS_RL:               GvNm1 (DYNAMICS)  max=  1.59509226435858E-05
DEBUG_STATS_RL:               GvNm1 (DYNAMICS) mean=  7.39450201412971E-07
DEBUG_STATS_RL:               GvNm1 (DYNAMICS) S.D.=  2.63897499845373E-06
DEBUG_STATS_RL:               GtNm1 (DYNAMICS)  min= -5.53014645975427E-06
DEBUG_STATS_RL:               GtNm1 (DYNAMICS)  max=  2.95808897232955E-06
DEBUG_STATS_RL:               GtNm1 (DYNAMICS) mean=  1.90589578968456E-09
DEBUG_STATS_RL:               GtNm1 (DYNAMICS) S.D.=  1.72539098180101E-07
DEBUG_STATS_RL:               GsNm1 (DYNAMICS)  min= -5.47578796984178E-07
DEBUG_STATS_RL:               GsNm1 (DYNAMICS)  max=  3.63066850929481E-07
DEBUG_STATS_RL:               GsNm1 (DYNAMICS) mean= -4.57358380034426E-10
DEBUG_STATS_RL:               GsNm1 (DYNAMICS) S.D.=  1.71214139818615E-08
DEBUG_STATS_RL:    cg2d_b (SOLVE_FOR_PRESSURE)  min= -2.05397043579299E+04
DEBUG_STATS_RL:    cg2d_b (SOLVE_FOR_PRESSURE)  max=  2.53570227411764E+04
DEBUG_STATS_RL:    cg2d_b (SOLVE_FOR_PRESSURE) mean=  4.27508547203984E+00
DEBUG_STATS_RL:    cg2d_b (SOLVE_FOR_PRESSURE) S.D.=  3.89558047768163E+03
 cg2d: Sum(rhs),rhsMax =   3.90299088689980E-01  1.66551714518512E+00
(PID.TID 0000.0001)  cg2d: iter=     1 ; resid.=  6.72004443592331E-02
(PID.TID 0000.0001)  cg2d: iter=     2 ; resid.=  3.91325060954296E-02
(PID.TID 0000.0001)  cg2d: iter=     3 ; resid.=  3.49944979447495E-02
(PID.TID 0000.0001)  cg2d: iter=     4 ; resid.=  3.33061979314247E-02
(PID.TID 0000.0001)  cg2d: iter=     5 ; resid.=  3.45725778877816E-02
(PID.TID 0000.0001)  cg2d: iter=     6 ; resid.=  3.12285477337396E-02
(PID.TID 0000.0001)  cg2d: iter=     7 ; resid.=  2.59664583843107E-02
(PID.TID 0000.0001)  cg2d: iter=     8 ; resid.=  2.03187158480301E-02
(PID.TID 0000.0001)  cg2d: iter=     9 ; resid.=  1.60266195039559E-02
(PID.TID 0000.0001)  cg2d: iter=    10 ; resid.=  1.26830881402022E-02
(PID.TID 0000.0001)  cg2d: iter=    11 ; resid.=  9.59256872275552E-03
(PID.TID 0000.0001)  cg2d: iter=    12 ; resid.=  7.82030299956117E-03
(PID.TID 0000.0001)  cg2d: iter=    13 ; resid.=  6.12828066895994E-03
(PID.TID 0000.0001)  cg2d: iter=    14 ; resid.=  5.30848859264414E-03
(PID.TID 0000.0001)  cg2d: iter=    15 ; resid.=  4.77031333781942E-03
(PID.TID 0000.0001)  cg2d: iter=    16 ; resid.=  3.94818014504595E-03
(PID.TID 0000.0001)  cg2d: iter=    17 ; resid.=  3.27312264076379E-03
(PID.TID 0000.0001)  cg2d: iter=    18 ; resid.=  3.03883066313927E-03
(PID.TID 0000.0001)  cg2d: iter=    19 ; resid.=  2.57064115090527E-03
(PID.TID 0000.0001)  cg2d: iter=    20 ; resid.=  1.94392199595180E-03
(PID.TID 0000.0001)  cg2d: iter=    21 ; resid.=  1.50881875344946E-03
(PID.TID 0000.0001)  cg2d: iter=    22 ; resid.=  1.24796942026890E-03
(PID.TID 0000.0001)  cg2d: iter=    23 ; resid.=  1.03453364032490E-03
(PID.TID 0000.0001)  cg2d: iter=    24 ; resid.=  9.23266175573486E-04
(PID.TID 0000.0001)  cg2d: iter=    25 ; resid.=  7.93497001910116E-04
(PID.TID 0000.0001)  cg2d: iter=    26 ; resid.=  6.41907995818182E-04
(PID.TID 0000.0001)  cg2d: iter=    27 ; resid.=  5.61106808784075E-04
(PID.TID 0000.0001)  cg2d: iter=    28 ; resid.=  4.86077803470568E-04
(PID.TID 0000.0001)  cg2d: iter=    29 ; resid.=  3.63315917320929E-04
(PID.TID 0000.0001)  cg2d: iter=    30 ; resid.=  2.74567027738166E-04
(PID.TID 0000.0001)  cg2d: iter=    31 ; resid.=  2.41958969760300E-04
(PID.TID 0000.0001)  cg2d: iter=    32 ; resid.=  1.86648576470353E-04
(PID.TID 0000.0001)  cg2d: iter=    33 ; resid.=  1.43437428288448E-04
(PID.TID 0000.0001)  cg2d: iter=    34 ; resid.=  1.15729093423251E-04
(PID.TID 0000.0001)  cg2d: iter=    35 ; resid.=  8.99852229239319E-05
(PID.TID 0000.0001)  cg2d: iter=    36 ; resid.=  7.36150772731150E-05
(PID.TID 0000.0001)  cg2d: iter=    37 ; resid.=  6.21769417883654E-05
(PID.TID 0000.0001)  cg2d: iter=    38 ; resid.=  5.63767953074217E-05
(PID.TID 0000.0001)  cg2d: iter=    39 ; resid.=  4.91008235278602E-05
(PID.TID 0000.0001)  cg2d: iter=    40 ; resid.=  4.27212090569791E-05
(PID.TID 0000.0001)  cg2d: iter=    41 ; resid.=  3.52963236575601E-05
(PID.TID 0000.0001)  cg2d: iter=    42 ; resid.=  2.84498929690444E-05
(PID.TID 0000.0001)  cg2d: iter=    43 ; resid.=  2.37134734214635E-05
(PID.TID 0000.0001)  cg2d: iter=    44 ; resid.=  1.91028474635538E-05
(PID.TID 0000.0001)  cg2d: iter=    45 ; resid.=  1.47675071058228E-05
(PID.TID 0000.0001)  cg2d: iter=    46 ; resid.=  1.22934269741704E-05
(PID.TID 0000.0001)  cg2d: iter=    47 ; resid.=  1.04160258825346E-05
(PID.TID 0000.0001)  cg2d: iter=    48 ; resid.=  8.92615295962700E-06
(PID.TID 0000.0001)  cg2d: iter=    49 ; resid.=  7.97134138489134E-06
(PID.TID 0000.0001)  cg2d: iter=    50 ; resid.=  7.00482291597937E-06
(PID.TID 0000.0001)  cg2d: iter=    51 ; resid.=  6.24616783904316E-06
(PID.TID 0000.0001)  cg2d: iter=    52 ; resid.=  5.06988707983433E-06
(PID.TID 0000.0001)  cg2d: iter=    53 ; resid.=  4.28279618302869E-06
(PID.TID 0000.0001)  cg2d: iter=    54 ; resid.=  3.62872733181016E-06
(PID.TID 0000.0001)  cg2d: iter=    55 ; resid.=  2.88410765491834E-06
(PID.TID 0000.0001)  cg2d: iter=    56 ; resid.=  2.43959580455392E-06
(PID.TID 0000.0001)  cg2d: iter=    57 ; resid.=  2.10118935533368E-06
(PID.TID 0000.0001)  cg2d: iter=    58 ; resid.=  1.76795574900071E-06
(PID.TID 0000.0001)  cg2d: iter=    59 ; resid.=  1.55774388559505E-06
(PID.TID 0000.0001)  cg2d: iter=    60 ; resid.=  1.26785048674754E-06
(PID.TID 0000.0001)  cg2d: iter=    61 ; resid.=  1.04245772957791E-06
(PID.TID 0000.0001)  cg2d: iter=    62 ; resid.=  8.60168536896003E-07
(PID.TID 0000.0001)  cg2d: iter=    63 ; resid.=  6.44072913531799E-07
(PID.TID 0000.0001)  cg2d: iter=    64 ; resid.=  5.25023637871903E-07
(PID.TID 0000.0001)  cg2d: iter=    65 ; resid.=  4.40312675094700E-07
(PID.TID 0000.0001)  cg2d: iter=    66 ; resid.=  3.75595318686206E-07
(PID.TID 0000.0001)  cg2d: iter=    67 ; resid.=  2.90391738459776E-07
(PID.TID 0000.0001)  cg2d: iter=    68 ; resid.=  2.25097462836941E-07
(PID.TID 0000.0001)  cg2d: iter=    69 ; resid.=  1.99665302372997E-07
(PID.TID 0000.0001)  cg2d: iter=    70 ; resid.=  1.69389735419252E-07
(PID.TID 0000.0001)  cg2d: iter=    71 ; resid.=  1.63158629739043E-07
(PID.TID 0000.0001)  cg2d: iter=    72 ; resid.=  1.48727883121318E-07
(PID.TID 0000.0001)  cg2d: iter=    73 ; resid.=  1.26543675349243E-07
(PID.TID 0000.0001)  cg2d: iter=    74 ; resid.=  1.08085154006147E-07
(PID.TID 0000.0001)  cg2d: iter=    75 ; resid.=  8.44103750409553E-08
(PID.TID 0000.0001)  cg2d: iter=    76 ; resid.=  7.12325309584369E-08
(PID.TID 0000.0001)  cg2d: iter=    77 ; resid.=  5.30825865376655E-08
(PID.TID 0000.0001)  cg2d: iter=    78 ; resid.=  3.77170465891111E-08
(PID.TID 0000.0001)  cg2d: iter=    79 ; resid.=  2.80787321170777E-08
(PID.TID 0000.0001)  cg2d: iter=    80 ; resid.=  2.29963294581420E-08
(PID.TID 0000.0001)  cg2d: iter=    81 ; resid.=  1.76438354658330E-08
(PID.TID 0000.0001)  cg2d: iter=    82 ; resid.=  1.30392166990110E-08
(PID.TID 0000.0001)  cg2d: iter=    83 ; resid.=  1.07632627402902E-08
(PID.TID 0000.0001)  cg2d: iter=    84 ; resid.=  9.41116105886448E-09
(PID.TID 0000.0001)  cg2d: iter=    85 ; resid.=  6.64661258050069E-09
(PID.TID 0000.0001)  cg2d: iter=    86 ; resid.=  4.81124052867205E-09
(PID.TID 0000.0001)  cg2d: iter=    87 ; resid.=  3.43418364536159E-09
(PID.TID 0000.0001)  cg2d: iter=    88 ; resid.=  2.60450255047934E-09
(PID.TID 0000.0001)  cg2d: iter=    89 ; resid.=  2.14286414501962E-09
(PID.TID 0000.0001)  cg2d: iter=    90 ; resid.=  1.98817678482211E-09
(PID.TID 0000.0001)  cg2d: iter=    91 ; resid.=  1.79188075339334E-09
(PID.TID 0000.0001)  cg2d: iter=    92 ; resid.=  1.46031549191494E-09
(PID.TID 0000.0001)  cg2d: iter=    93 ; resid.=  1.10464446921080E-09
(PID.TID 0000.0001)  cg2d: iter=    94 ; resid.=  9.14906025185901E-10
(PID.TID 0000.0001)  cg2d: iter=    95 ; resid.=  7.71528603275885E-10
(PID.TID 0000.0001)  cg2d: iter=    96 ; resid.=  6.81434355417759E-10
(PID.TID 0000.0001)  cg2d: iter=    97 ; resid.=  5.09380951317142E-10
(PID.TID 0000.0001)  cg2d: iter=    98 ; resid.=  3.94262135768518E-10
(PID.TID 0000.0001)  cg2d: iter=    99 ; resid.=  3.05822631205905E-10
(PID.TID 0000.0001)  cg2d: iter=   100 ; resid.=  2.58446723747315E-10
(PID.TID 0000.0001)  cg2d: iter=   101 ; resid.=  2.31339675789271E-10
(PID.TID 0000.0001)  cg2d: iter=   102 ; resid.=  1.81659374491211E-10
(PID.TID 0000.0001)  cg2d: iter=   103 ; resid.=  1.39865968803700E-10
(PID.TID 0000.0001)  cg2d: iter=   104 ; resid.=  1.02306838856194E-10
(PID.TID 0000.0001)  cg2d: iter=   105 ; resid.=  7.53258208202160E-11
(PID.TID 0000.0001)  cg2d: iter=   106 ; resid.=  5.64197022209744E-11
(PID.TID 0000.0001)  cg2d: iter=   107 ; resid.=  3.93545598328301E-11
(PID.TID 0000.0001)  cg2d: iter=   108 ; resid.=  2.80170857935682E-11
(PID.TID 0000.0001)  cg2d: iter=   109 ; resid.=  2.10958177229906E-11
(PID.TID 0000.0001)  cg2d: iter=   110 ; resid.=  1.78107330062325E-11
(PID.TID 0000.0001)  cg2d: iter=   111 ; resid.=  1.35872089656964E-11
(PID.TID 0000.0001)  cg2d: iter=   112 ; resid.=  1.05234041665558E-11
(PID.TID 0000.0001)  cg2d: iter=   113 ; resid.=  7.81848026743811E-12
(PID.TID 0000.0001)  cg2d: iter=   114 ; resid.=  5.98297176595392E-12
(PID.TID 0000.0001)  cg2d: iter=   115 ; resid.=  4.91403323334204E-12
(PID.TID 0000.0001)  cg2d: iter=   116 ; resid.=  3.92329174549220E-12
(PID.TID 0000.0001)  cg2d: iter=   117 ; resid.=  3.21976879941275E-12
(PID.TID 0000.0001)  cg2d: iter=   118 ; resid.=  2.48020148194143E-12
(PID.TID 0000.0001)  cg2d: iter=   119 ; resid.=  1.88023874861725E-12
(PID.TID 0000.0001)  cg2d: iter=   120 ; resid.=  1.35164812762099E-12
(PID.TID 0000.0001)  cg2d: iter=   121 ; resid.=  9.62954008834141E-13
(PID.TID 0000.0001)  cg2d: iter=   122 ; resid.=  6.88461577317338E-13
(PID.TID 0000.0001)  cg2d: iter=   123 ; resid.=  5.20023594208246E-13
(PID.TID 0000.0001)  cg2d: iter=   124 ; resid.=  4.01624485011138E-13
(PID.TID 0000.0001)  cg2d: iter=   125 ; resid.=  3.17606719216567E-13
(PID.TID 0000.0001)  cg2d: iter=   126 ; resid.=  2.38410454262149E-13
(PID.TID 0000.0001)  cg2d: iter=   127 ; resid.=  1.82997990925268E-13
(PID.TID 0000.0001)  cg2d: iter=   128 ; resid.=  1.28952035481999E-13
(PID.TID 0000.0001)  cg2d: iter=   129 ; resid.=  8.56461724867679E-14
DEBUG_STATS_RL:    cg2d_x (SOLVE_FOR_PRESSURE)  min= -1.86360896611109E+01
DEBUG_STATS_RL:    cg2d_x (SOLVE_FOR_PRESSURE)  max=  9.28336465011781E+00
DEBUG_STATS_RL:    cg2d_x (SOLVE_FOR_PRESSURE) mean= -1.85915283875667E+00
DEBUG_STATS_RL:    cg2d_x (SOLVE_FOR_PRESSURE) S.D.=  7.32031006485463E+00
(PID.TID 0000.0001)      cg2d_init_res =   2.56691586348586E-01
(PID.TID 0000.0001)      cg2d_iters(min,last) =      -1     129
(PID.TID 0000.0001)      cg2d_last_res =   8.56461724867679E-14
(PID.TID 0000.0001) // =======================================================
(PID.TID 0000.0001) // Begin MONITOR dynamic field statistics
(PID.TID 0000.0001) // =======================================================
(PID.TID 0000.0001) %MON time_tsnumber                =                    60
(PID.TID 0000.0001) %MON time_secondsf                =   5.1840000000000E+06
(PID.TID 0000.0001) %MON dynstat_eta_max              =   9.4631647809565E-01
(PID.TID 0000.0001) %MON dynstat_eta_min              =  -1.8997033293691E+00
(PID.TID 0000.0001) %MON dynstat_eta_mean             =  -4.4605215969753E-03
(PID.TID 0000.0001) %MON dynstat_eta_sd               =   6.5485971391139E-01
(PID.TID 0000.0001) %MON dynstat_eta_del2             =   2.3874513143512E-03
(PID.TID 0000.0001) %MON dynstat_uvel_max             =   1.3768008552276E-01
(PID.TID 0000.0001) %MON dynstat_uvel_min             =  -1.2465373173713E-01
(PID.TID 0000.0001) %MON dynstat_uvel_mean            =   2.2314346539978E-03
(PID.TID 0000.0001) %MON dynstat_uvel_sd              =   1.2462440404856E-02
(PID.TID 0000.0001) %MON dynstat_uvel_del2            =   7.7263374412051E-05
(PID.TID 0000.0001) %MON dynstat_vvel_max             =   1.3823883128984E-01
(PID.TID 0000.0001) %MON dynstat_vvel_min             =  -9.1882557246490E-02
(PID.TID 0000.0001) %MON dynstat_vvel_mean            =  -5.3548253631891E-06
(PID.TID 0000.0001) %MON dynstat_vvel_sd              =   8.2367472018249E-03
(PID.TID 0000.0001) %MON dynstat_vvel_del2            =   7.0552050637661E-05
(PID.TID 0000.0001) %MON dynstat_wvel_max             =   1.0548268026826E-04
(PID.TID 0000.0001) %MON dynstat_wvel_min             =  -6.3046245811918E-05
(PID.TID 0000.0001) %MON dynstat_wvel_mean            =  -6.2428569857552E-23
(PID.TID 0000.0001) %MON dynstat_wvel_sd              =   1.0890051152370E-05
(PID.TID 0000.0001) %MON dynstat_wvel_del2            =   1.1470505843356E-07
(PID.TID 0000.0001) %MON dynstat_theta_max            =   3.0505845295689E+01
(PID.TID 0000.0001) %MON dynstat_theta_min            =  -1.9680306171263E+00
(PID.TID 0000.0001) %MON dynstat_theta_mean           =   3.6232875789452E+00
(PID.TID 0000.0001) %MON dynstat_theta_sd             =   4.4235447856952E+00
(PID.TID 0000.0001) %MON dynstat_theta_del2           =   4.8825393406045E-03
(PID.TID 0000.0001) %MON dynstat_salt_max             =   3.7466899387695E+01
(PID.TID 0000.0001) %MON dynstat_salt_min             =   2.9868972225826E+01
(PID.TID 0000.0001) %MON dynstat_salt_mean            =   3.4718003155481E+01
(PID.TID 0000.0001) %MON dynstat_salt_sd              =   2.9646724892869E-01
(PID.TID 0000.0001) %MON dynstat_salt_del2            =   9.8946208302767E-04
(PID.TID 0000.0001) %MON dynstat_sst_max              =   3.0505845295689E+01
(PID.TID 0000.0001) %MON dynstat_sst_min              =  -1.9680306171263E+00
(PID.TID 0000.0001) %MON dynstat_sst_mean             =   1.8986964244695E+01
(PID.TID 0000.0001) %MON dynstat_sst_sd               =   9.0637812929779E+00
(PID.TID 0000.0001) %MON dynstat_sst_del2             =   2.8028699648940E-02
(PID.TID 0000.0001) %MON dynstat_sss_max              =   3.7448028492543E+01
(PID.TID 0000.0001) %MON dynstat_sss_min              =   2.9868972225826E+01
(PID.TID 0000.0001) %MON dynstat_sss_mean             =   3.4840194489229E+01
(PID.TID 0000.0001) %MON dynstat_sss_sd               =   9.8065752941494E-01
(PID.TID 0000.0001) %MON dynstat_sss_del2             =   8.0021273742438E-03
(PID.TID 0000.0001) %MON forcing_qnet_max             =   3.1927811686198E+02
(PID.TID 0000.0001) %MON forcing_qnet_min             =  -1.6864405924479E+02
(PID.TID 0000.0001) %MON forcing_qnet_mean            =  -1.0838497984171E+01
(PID.TID 0000.0001) %MON forcing_qnet_sd              =   6.1023027857854E+01
(PID.TID 0000.0001) %MON forcing_qnet_del2            =   8.8444669970173E-01
(PID.TID 0000.0001) %MON forcing_qsw_max              =   0.0000000000000E+00
(PID.TID 0000.0001) %MON forcing_qsw_min              =   0.0000000000000E+00
(PID.TID 0000.0001) %MON forcing_qsw_mean             =   0.0000000000000E+00
(PID.TID 0000.0001) %MON forcing_qsw_sd               =   0.0000000000000E+00
(PID.TID 0000.0001) %MON forcing_qsw_del2             =   0.0000000000000E+00
(PID.TID 0000.0001) %MON forcing_empmr_max            =   6.9200923273153E-05
(PID.TID 0000.0001) %MON forcing_empmr_min            =  -7.6877544093653E-05
(PID.TID 0000.0001) %MON forcing_empmr_mean           =   7.6014994766839E-07
(PID.TID 0000.0001) %MON forcing_empmr_sd             =   2.6929596826470E-05
(PID.TID 0000.0001) %MON forcing_empmr_del2           =   3.5385255820596E-07
(PID.TID 0000.0001) %MON forcing_fu_max               =   3.2648874521255E-01
(PID.TID 0000.0001) %MON forcing_fu_min               =  -2.9111716349920E-01
(PID.TID 0000.0001) %MON forcing_fu_mean              =   1.8949535869053E-02
(PID.TID 0000.0001) %MON forcing_fu_sd                =   9.5028365431322E-02
(PID.TID 0000.0001) %MON forcing_fu_del2              =   7.1121052638075E-04
(PID.TID 0000.0001) %MON forcing_fv_max               =   1.5403114557266E-01
(PID.TID 0000.0001) %MON forcing_fv_min               =  -1.7887474894524E-01
(PID.TID 0000.0001) %MON forcing_fv_mean              =  -7.3627218405330E-03
(PID.TID 0000.0001) %MON forcing_fv_sd                =   4.1994212761373E-02
(PID.TID 0000.0001) %MON forcing_fv_del2              =   4.6991047524395E-04
(PID.TID 0000.0001) %MON trAdv_CFL_u_max              =   3.7820705135383E-02
(PID.TID 0000.0001) %MON trAdv_CFL_v_max              =   2.7042276778320E-02
(PID.TID 0000.0001) %MON trAdv_CFL_w_max              =   3.0072930954093E-02
(PID.TID 0000.0001) %MON advcfl_uvel_max              =   3.5994373609195E-02
(PID.TID 0000.0001) %MON advcfl_vvel_max              =   2.6857587835313E-02
(PID.TID 0000.0001) %MON advcfl_wvel_max              =   2.5149185909453E-02
(PID.TID 0000.0001) %MON advcfl_W_hf_max              =   3.0179023091344E-02
(PID.TID 0000.0001) %MON pe_b_mean                    =   5.4877952195778E-04
(PID.TID 0000.0001) %MON ke_max                       =   1.2484412073919E-02
(PID.TID 0000.0001) %MON ke_mean                      =   1.0328111536817E-04
(PID.TID 0000.0001) %MON ke_vol                       =   1.3226782436723E+18
(PID.TID 0000.0001) %MON vort_r_min                   =  -3.7515477675531E-07
(PID.TID 0000.0001) %MON vort_r_max                   =   3.8188037043629E-07
(PID.TID 0000.0001) %MON vort_a_mean                  =  -2.5274807011040E-05
(PID.TID 0000.0001) %MON vort_a_sd                    =   7.3604655085052E-05
(PID.TID 0000.0001) %MON vort_p_mean                  =  -3.1845655312603E-05
(PID.TID 0000.0001) %MON vort_p_sd                    =   1.3162510932143E-04
(PID.TID 0000.0001) %MON surfExpan_theta_mean         =   1.7461123928860E-07
(PID.TID 0000.0001) %MON surfExpan_salt_mean          =  -1.4908315822240E-08
(PID.TID 0000.0001) // =======================================================
(PID.TID 0000.0001) // End MONITOR dynamic field statistics
(PID.TID 0000.0001) // =======================================================
(PID.TID 0000.0001) // =======================================================
(PID.TID 0000.0001) // Field Current uVel   at iteration         60
(PID.TID 0000.0001) // CMIN =         -1.246537317371312E-01
(PID.TID 0000.0001) // CMAX =          1.376800855227561E-01
(PID.TID 0000.0001) // CINT =          9.716067305921752E-03
(PID.TID 0000.0001) // SYMBOLS (CMIN->CMAX): -abcdefghijklmnopqrstuvwxyz+
(PID.TID 0000.0001) //                  0.0: .
(PID.TID 0000.0001) // RANGE I (Lo:Hi:Step):(     1:    90:     1)
(PID.TID 0000.0001) // RANGE J (Lo:Hi:Step):(    40:     1:    -1)
(PID.TID 0000.0001) // RANGE K (Lo:Hi:Step):(   1:   1:   1)
(PID.TID 0000.0001) // =======================================================
(PID.TID 0000.0001) K =   1
(PID.TID 0000.0001)                I=10      I=20      I=30      I=40      I=50      I=60      I=70      I=80      I=90
(PID.TID 0000.0001) |--J--|123456789|123456789|123456789|123456789|123456789|123456789|123456789|123456789|123456789|
(PID.TID 0000.0001)     40 mmmll..mmlllmmmmmmm...................................................................llll
(PID.TID 0000.0001)     39 mnnmlmllllmmmm....m......................................................mmm.........kkkkl
(PID.TID 0000.0001)     38 mnoonmmmmmmmm............................................................mmmm.......kkjklm
(PID.TID 0000.0001)     37 noo...................................................................m....kl....kkjk..mnn
(PID.TID 0000.0001)     36 po..........................................kll.....................mmmmmmmkjk..kjklmmmnnp
(PID.TID 0000.0001)     35 on..................................lll...mlkklm....llll............mm.....mlllkkmnnoooqqo
(PID.TID 0000.0001)     34 ....................................lll..lmmmmmm..nllllll...................nnmmnooopppo..
(PID.TID 0000.0001)     33 .....................................llkkkmnnnnonnoooonnmmm..................mnoppppooomm.
(PID.TID 0000.0001)     32 .....................................kkkllmnopppppppqqpponn.................ooopqqppnmmnn.
(PID.TID 0000.0001)     31 .....................................mmnoppqqqrrrrrsstsrqpo...............otvsstsrqpnmlm..
(PID.TID 0000.0001)     30 ....................................rtttuuvvutuuuuuuvvutrqo.............osuvuuuutsrponmm..
(PID.TID 0000.0001)     29 ..................................quwwxxxyyyxwvutttuuutsqpon............tuvusrqppponmlll..
(PID.TID 0000.0001)     28 ................................oqtutsttuuuttsrqpppqqqpoonnnn..........rsqponnmmmmlkkkkl..
(PID.TID 0000.0001)     27 ...............m...............nqpponmnonnonnnnmllmmnnnmmmmmmm....mmm..opnmmmmmllkkkkk....
(PID.TID 0000.0001)     26 ...............nn............kknqonmlklmlllllmllklmmmnnnnmmmmmmm..mmmmnoonmmnnnnmmmmml....
(PID.TID 0000.0001)     25 ...............oon....nm....mnmorqpnlkkmlkkllmmllmmnnnnnnnnmmmmmm....lmmnmnnnnoonnnmll....
(PID.TID 0000.0001)     24 .............omlmmn..nmk....mn..mljjhihjjjjiijkkklmmlkkkkjkkkllllklm..mjkijkllllmlkjkm....
(PID.TID 0000.0001)     23 .............gfggik..jhh....km...fedbcbdeedcdeggijjjjjkjijkiiiihhhijl.....jihghhihhijo....
(PID.TID 0000.0001)     22 l............a--abedcddf....l..fadfdabbcddcbcdfhhjijllnoonmlkjjijiiijj.......jheddgikopqol
(PID.TID 0000.0001)     21 mmn.........fdcba-bcdgjko......igmmiffefgghfghiiiiigjklmmljkklmlmlkihj.........hdcgklnponn
(PID.TID 0000.0001)     20 lln........jijkjihhhjlonm.........nmlkhijlmllllkjjigihhhihfghjkjkjjhgi..........hcfhijkjjk
(PID.TID 0000.0001)     19 knn........ihjkkmmljjklljlm....mo......mmoqpoponmmljjigggfddddddfgfedg............hffhhhgi
(PID.TID 0000.0001)     18 imn........hfffdgjkkjijjjlmmllmmn....oqqnqrrqqponoonmkiiihgeddccefeedej...........khghhhgg
(PID.TID 0000.0001)     17 hjl..........iighiklnnklmnmmmmm......oppopppppppooonnmlkkkjihggfghhhgfg..........omkihgghg
(PID.TID 0000.0001)     16 jjk.......n..lkkjiklnpmkmnonmm........mmmnnnnnoonnmmmmmllllkkjjjkkkkkjkk.........nmkjiiiji
(PID.TID 0000.0001)     15 kkkk.....nm..mllkkkklmlkkmono..........lkllllmnnnnmmmlllkkkkkjklllkklkklm.......llkkjjjjjj
(PID.TID 0000.0001)     14 jjii.....kjklmnnmmnmmlkjkllln..........mkkllmnnnnnooonmmmmmmkklmlkkkllkkl......mmmllllkjjj
(PID.TID 0000.0001)     13 lkih.....mmlmoonmmopomklmlkjj..........ooooppppoopqqqqppqqqqppoonmnnnmlkm.....lnoooooonnmm
(PID.TID 0000.0001)     12 qomkjkilnrrqqqppoopppooppomlllmmml.....pqrqppqpppqqqppppqrrsssqqoopponmk......oqrrrrssssrq
(PID.TID 0000.0001)     11 srqqpoortwwwwwutssssrrrsrqpoooooomm...opppo..ppppoooooooopqqqqqqpopppoml.....nqstuuuuuutss
(PID.TID 0000.0001)     10 srqrrsuvwyz++zxwvvvvtsstsrqqqqpppnml..ooonn..pqommmnnnnnmlmnnooooooooonm...onoprstuuuutttt
(PID.TID 0000.0001)      9 srrrstuuvxyxvvvussttssssssrrqqqppponoooonn..pponnmnnmmmnmmmmmnnnnnnmnnnm..noopqqrssststtut
(PID.TID 0000.0001)      8 sstutsrrstttssrrqqpqssssssstsrrsssttttsrqqqrqpoppqqqppoopppooooooooooooo..nmmopqppqqqrrsss
(PID.TID 0000.0001)      7 sstsrqqqqqqrrqqqrqppqrqqrrrrrrsstuvwwvvvuuuusrrsstttuutssrrqqqqrrrqqrrrutqpoqrrqoopppppqrr
(PID.TID 0000.0001)      6 pppooppppppppppppqqpoooppppqqrsssstttstuvwwvuttuuuuuuvuutsrrrsssstttttuvwvvwwvtrqppooooppp
(PID.TID 0000.0001)      5 mllmmnnooonnnnmnoooonnnnmmnooppppppppqrstuvvuuuuutttsrrrrrrsssssstttttuuutsstsqpooonnnnnmm
(PID.TID 0000.0001)      4 kkjkkllmmmllllllmmmmmlllkklllmmmmmnnnnnnoppqqqrqqqpponnnopqqqqqqqqqqqqqqpn...mnnmmmmmmmllk
(PID.TID 0000.0001)      3 kkjkkkkkll.............................llmmmmmnnmmllllllmmnnnnnnnnnnmmmmm...mmllllllllllkk
(PID.TID 0000.0001)      2 ...........................................llmmmmllllklllllllllm...lll......mmmmlllllmm...
(PID.TID 0000.0001)      1 ..........................................................................................
(PID.TID 0000.0001) // =======================================================
(PID.TID 0000.0001) // END OF FIELD                                          =
(PID.TID 0000.0001) // =======================================================
(PID.TID 0000.0001) 
(PID.TID 0000.0001) // =======================================================
(PID.TID 0000.0001) // Field Current vVel   at iteration         60
(PID.TID 0000.0001) // CMIN =         -9.188255724649008E-02
(PID.TID 0000.0001) // CMAX =          1.382388312898413E-01
(PID.TID 0000.0001) // CINT =          8.523014390234495E-03
(PID.TID 0000.0001) // SYMBOLS (CMIN->CMAX): -abcdefghijklmnopqrstuvwxyz+
(PID.TID 0000.0001) //                  0.0: .
(PID.TID 0000.0001) // RANGE I (Lo:Hi:Step):(     1:    90:     1)
(PID.TID 0000.0001) // RANGE J (Lo:Hi:Step):(    40:     1:    -1)
(PID.TID 0000.0001) // RANGE K (Lo:Hi:Step):(   1:   1:   1)
(PID.TID 0000.0001) // =======================================================
(PID.TID 0000.0001) K =   1
(PID.TID 0000.0001)                I=10      I=20      I=30      I=40      I=50      I=60      I=70      I=80      I=90
(PID.TID 0000.0001) |--J--|123456789|123456789|123456789|123456789|123456789|123456789|123456789|123456789|123456789|
(PID.TID 0000.0001)     40 jknom.jjjjjkkk...kk..................................................................jjjji
(PID.TID 0000.0001)     39 kklmmkkjjjjkl...........................................................kjjk........hjjjkk
(PID.TID 0000.0001)     38 klm.......................................................................jjj......ig.llkk
(PID.TID 0000.0001)     37 mn...................................................................kj...jii...gjmlk.klkk
(PID.TID 0000.0001)     36 mm.........................................lmml....................kjk....gfhj.fejmllkkmlk
(PID.TID 0000.0001)     35 ...................................jkkk..llmmmlk...iilmm...................fhiihikkkklmo..
(PID.TID 0000.0001)     34 ....................................jkk.kkklllll.jijjklll...................hfhiijkkkjll..
(PID.TID 0000.0001)     33 ....................................jjjkkkkjklkjjihhhhiiikk.................leghhhhihggik.
(PID.TID 0000.0001)     32 ....................................jihhihhhhhgfgffeffffghj................okdeffeefffgi..
(PID.TID 0000.0001)     31 ....................................jgeddddddeddddcdeeefffi..............ihgdcddddeefghi..
(PID.TID 0000.0001)     30 ...................................kiebabbaacdddddefghhhgfg............mkhhfeeeeffefhhij..
(PID.TID 0000.0001)     29 .................................mllifddefeefhhhhhhjkkjjigfg...........nmjiiiiihhgghhijk..
(PID.TID 0000.0001)     28 ...............................mnnnmkjiiklkkklkklllmmmlkjihgh.........mnnmmmlkjkjiiiii....
(PID.TID 0000.0001)     27 ..............kk..............mlmlmnnmmmnnmlllklllllllkkkkjjii...kkln.mmmmllkkjjjjjiik....
(PID.TID 0000.0001)     26 ..............kll...........jkmmmnoonmmmmllllllllllkllmmmnmmmllk....onmnmmmmmmmmmmmmno....
(PID.TID 0000.0001)     25 ..............nopl...kjk...lmm.oprsssrrrrqqqpppqqpppqrstuutsqonml....oopoqqrrsstsrrssp....
(PID.TID 0000.0001)     24 ............ottsrmh.llkk...lnl..qswyzzz+zwvwwvwwwvwxxxxz+zxvtrponoon.....suuvxyywvuvup....
(PID.TID 0000.0001)     23 ............mrstrnk.imop...km...elruwwyzywvutuvuttuvvvuuuvusqonnmnnnm.......psvvuutstq....
(PID.TID 0000.0001)     22 j...........imoponlljmno......hfccfikmpqqponnnmmmnoqrstuvvvsqnllllllml........pqqssqpnjkml
(PID.TID 0000.0001)     21 kjh........lmopnlkkjikmnn......f.abcdfjjjjjjjjkmnnoooqsuuuttrponnmmkjh.........knssrpnnnml
(PID.TID 0000.0001)     20 gfh.......lostrokhhiijkjh......h......nljiiijklnoonnnnpqpoopqpponllllj...........tqpoopoli
(PID.TID 0000.0001)     19 eei.......kmsrnhcbcddfggegi...jjj.....nlkkjjjkllllkmonmljhhiihhhhghijj...........nljjkkjhg
(PID.TID 0000.0001)     18 efi.......i.qqjc-bcddcffefillmk.....klmnmmlllllkkkklnmjihffeededeefghhk..........jihhhfdde
(PID.TID 0000.0001)     17 dfi.......m.mqlhhihjigghhiijlk.......lmmmmlllmlmnnmmnmljihgggffeeeefffh.........kkjhhheccd
(PID.TID 0000.0001)     16 hik......nn.kljiifhkihijjjigi.........jjjjkkkkklmmmlmmlkjklkjjiihhhhhiik........jkkjjjjhhh
(PID.TID 0000.0001)     15 lnpm....kpn.fggffeglkffijkjhi.........ihhhhgghhhiiiiiiihhiihikkjiijjklmnl......hhiihijjkkk
(PID.TID 0000.0001)     14 mnpo....hijgdeeedcgjjffillkkj.........gghhgfffgggggfeffffgggilkjiijkklool.....hhgggffhikll
(PID.TID 0000.0001)     13 nnnn....dfigefggffghgfgjmlkkk.........hgijjhggghhhgfeffggghhjkjjllllllnm.....ihjijiggijklm
(PID.TID 0000.0001)     12 ponmkhfhgjnmjkmmmlllkklnonmmlkjjkk....jjkll.hijjkjihhiijjjjllkkmoonnmmnl.....jklmnnlkllmop
(PID.TID 0000.0001)     11 srqqomnnmorspoqrsrqqpppqqrrqonnmmmm..jkmmll.jkkklkjjjjklmmmnnmmorrqponnm....ilppppppoooprs
(PID.TID 0000.0001)     10 srrssrpopqrttrrsutrpqrrrqqrrqpoonmop.mmnmk..nkkklmlllllmnopoonnqssrponnl..oplossrqqqopqqrs
(PID.TID 0000.0001)      9 pppqsronoppqrrpnrupmnoqqpoopponnmlmqpnmmll.polkkllkklmlmnoponnnprrpponkk.npqpprsqooonnopqp
(PID.TID 0000.0001)      8 nnoooonmnnnooonlmsrnnnnoonnnnnnmmlmnmkjiilprolkklkjiijklmmnmllmnoonnmlii.poqqqrspnnmmmmnoo
(PID.TID 0000.0001)      7 nmmlllmnmmmnnmlllnrqonmmmmllmmmmllnoljiggjmnnmllmllkjiijlllmllllmmmlkkkknomnpqqponmlklmmmn
(PID.TID 0000.0001)      6 mmkkkklmmlkkllkklmnonmllkjjjklllkklmlkjihiklllmmmmmmmkiiiiklllkklllkkkklmnmnnnnmlllkkklmmm
(PID.TID 0000.0001)      5 lkjjjjjkkjijjjjjkkkkkkjjiiiijjjiiiijkkkjjjkjjkmnmmmmmkjjijkllkkkklllkklllm..llllkkkkkkllkl
(PID.TID 0000.0001)      4 ihghhhgghi............................jjjjkjjklmmmllkjjjkklkkkjjjjkkkkjjj...kkkkkkkkkkjjji
(PID.TID 0000.0001)      3 ..........................................jjjjjjjjjjjijkkkkjjiii..kjjj.....kjkkjijjjkjj...
(PID.TID 0000.0001)      2 ..........................................................................................
(PID.TID 0000.0001)      1 ..........................................................................................
(PID.TID 0000.0001) // =======================================================
(PID.TID 0000.0001) // END OF FIELD                                          =
(PID.TID 0000.0001) // =======================================================
(PID.TID 0000.0001) 
(PID.TID 0000.0001) // =======================================================
(PID.TID 0000.0001) // Field Current theta  at iteration         60
(PID.TID 0000.0001) // CMIN =         -1.968030617126342E+00
(PID.TID 0000.0001) // CMAX =          3.050584529568876E+01
(PID.TID 0000.0001) // CINT =          1.202736144919078E+00
(PID.TID 0000.0001) // SYMBOLS (CMIN->CMAX): -abcdefghijklmnopqrstuvwxyz+
(PID.TID 0000.0001) //                  0.0: .
(PID.TID 0000.0001) // RANGE I (Lo:Hi:Step):(     1:    90:     1)
(PID.TID 0000.0001) // RANGE J (Lo:Hi:Step):(    40:     1:    -1)
(PID.TID 0000.0001) // RANGE K (Lo:Hi:Step):(   1:   1:   1)
(PID.TID 0000.0001) // =======================================================
(PID.TID 0000.0001) K =   1
(PID.TID 0000.0001)                I=10      I=20      I=30      I=40      I=50      I=60      I=70      I=80      I=90
(PID.TID 0000.0001) |--J--|123456789|123456789|123456789|123456789|123456789|123456789|123456789|123456789|123456789|
(PID.TID 0000.0001)     40 -bcccba-------abdddbbbbbbbbbbbbbbbbbbbbbbbbbbbbbbbbbbbbbbbbbbbbbbbbbbbbbbbbbbbbbbbbbbaaa--
(PID.TID 0000.0001)     39 bbcccccbaa----bbbddbbbbbbbbbbbbbbbbbbbbbbbbbbbbbbbbbbbbbbbbbbbbbbbbbbbbb----bbbbbbbbbaaaab
(PID.TID 0000.0001)     38 deeeeecccbb--bbbbbbbbbbbbbbbbbbbbbbbbbbbbbbbbbbbbbbbbbbbbbbbbbbbbbbbbbbb-----bbbbbbb---bcd
(PID.TID 0000.0001)     37 fggbbbbbbbbbbbbbbbbbbbbbbbbbbbbbbbbbbbbbbbbbbbbbbbbbbbbbbbbbbbbbbbbbbbbbbba-bbbbcbceebcdde
(PID.TID 0000.0001)     36 ggbbbbbbbbbbbbbbbbbbbbbbbbbbbbbbbbbbbbbbbbbba--bbbbbbbbbbbbbbbbbbbbccccbababbdbcefgghhhggg
(PID.TID 0000.0001)     35 ffbbbbbbbbbbbbbbbbbbbbbbbbbbbbbbbbb----bbbbbccb-bbbdddefbbbbbbbbbbbbbbbbbbbcdedeefghiiiihg
(PID.TID 0000.0001)     34 bbbbbbbbbbbbbbbbbbbbbbbbbbbbbbbbbbb----bacccccddbccdeefffbbbbbbbbbbbbbbbbbbbabdeffhiijjibb
(PID.TID 0000.0001)     33 bbbbbbbbbbbbbbbbbbbbbbbbbbbbbbbbbbbb--abbcccccddeeeeeffggghbbbbbbbbbbbbbbbbbaacghijjkkkjjb
(PID.TID 0000.0001)     32 bbbbbbbbbbbbbbbbbbbbbbbbbbbbbbbbbbbb-abbccddddeefggggghhhhibbbbbbbbbbbbbbbbccaaiklllllkkjb
(PID.TID 0000.0001)     31 bbbbbbbbbbbbbbbbbbbbbbbbbbbbbbbbbbbbdeffggghiiiiiiiiijjkkjjbbbbbbbbbbbbbbhjlkhjmnnmmmmlmbb
(PID.TID 0000.0001)     30 bbbbbbbbbbbbbbbbbbbbbbbbbbbbbbbbbbbkkjkkkkklllkkkllllmmmmllbbbbbbbbbbbbmnnoppoopoooonnnnbb
(PID.TID 0000.0001)     29 bbbbbbbbbbbbbbbbbbbbbbbbbbbbbbbbbnononnnnnnnnnnnnnnnooooonmmbbbbbbbbbbbpqqqqqqqpppppoooobb
(PID.TID 0000.0001)     28 bbbbbbbbbbbbbbbbbbbbbbbbbbbbbbbnppppppppppppppqppqqpqqqqpoonnbbbbbbbbbrrrrrrrrqqrqqqppppbb
(PID.TID 0000.0001)     27 bbbbbbbbbbbbbbuubbbbbbbbbbbbbbqqrrrrssrrssssssssssssssrrrqppppbbbsrstbttttttttssssrrrqbbbb
(PID.TID 0000.0001)     26 bbbbbbbbbbbbbbutubbbbbbbbbbbtsttttuuuuuuuuuuuuuuuuutttsssrqqqrsubttuvvuvuuuuuuuutssrrqbbbb
(PID.TID 0000.0001)     25 bbbbbbbbbbbbbbuuvvbbbwvwbbbuuvvvvvwwwwwwwwvvvvvvvvvuuutttsssstuvwbbbwvvvvvvuuuuuttsrqpbbbb
(PID.TID 0000.0001)     24 bbbbbbbbbbbbvvvvwxybwwwxbbbwwvbxwwxxxwwwwwwvwwwvvvvvvvvvvuvvvvwwwvvvbwvvvvvvvvvuuuttssbbbb
(PID.TID 0000.0001)     23 bbbbbbbbbbbbwvwxxyybwwxxbbbxwwbbxxxxxxxxxxxwwwwwwwwwwxwwwwwwwwwwwwwwvbbbbwwwvvwvvvvvvvbbbb
(PID.TID 0000.0001)     22 wbbbbbbbbbbbwwwxxxyyxxyybbbxxbyyyyyyyyyyyyyxxxxxxxxxxxxwwwwwxwwwwwwwvwbbbbbbxxwwwwxxxxyxxw
(PID.TID 0000.0001)     21 wwvbbbbbbbbxxxxxyyyyyzz++bbbbbyzzzzzzzzzzzzyyyyyyyyyyyxxwwxxxxxwwwwvvwbbbbbbbbyxxyyyyzzyxw
(PID.TID 0000.0001)     20 wwvbbbbbbbyyyyyyyzzzzzz++bbbbbbzbzzzzz+++++zzzzzzzzzyyyyxxxyxxxxxxxwwvbbbbbbbbbyyyyyyyyxxx
(PID.TID 0000.0001)     19 wwwbbbbbbbzzzzyzzzyzzzzyzzybbbzzzbbbbb++z+++zzzzzzzzyyyxxxxxxwwwwwwwvvbbbbbbbbbbbyxxxwwwww
(PID.TID 0000.0001)     18 vutbbbbbbbzzyyxxxyyyyyyyzyzyzz+zzbbb++zz+++zzzzzzzzzzyyyyyxxwwwvvvvvvuubbbbbbbbbbyxxwwwwww
(PID.TID 0000.0001)     17 uusbbbbbbbzbyxxxxxxyyyyyyyyyyzzbbbbbzzzzzz+zzzzzzzzzzyyyyyxxwwwvuvvuttvbbbbbbbbbxyyyxwuvvu
(PID.TID 0000.0001)     16 utsbbbbbbyzbyyxxxxxxxxxwwxxxyzbbbbbbbyyyyzzzzzzzzyyyyyyyxxyxxxwwvvvuutttbbbbbbbbyyyyxwvvvu
(PID.TID 0000.0001)     15 tsrrbbbbwyybxxxxxwwwwwwwvvvwxbbbbbbbbbwxxxxxxxxxxxxxyyxyyyyyxwwwwvvuutssrbbbbbbxxyyxyxxwvu
(PID.TID 0000.0001)     14 utrqbbbbwyxwwxwvwwwvvuuuttuuubbbbbbbbbwwwwwwwwwwwxxxxxxwxxxxxwwwvvvvtssssbbbbbwwxxxxxxwwwu
(PID.TID 0000.0001)     13 uutrbbbbwxwwwwvuvvvvvuuttttttbbbbbbbbbvvvvvvvvvvvvuvvvwvwwwxxwwvvuuuusssqbbbbvwwwwwwwwwvvu
(PID.TID 0000.0001)     12 tststsrtuvutuuttsssstutsrsssrqqrrqbbbbuuuutttttsststttttttuvuutttstttsrrbbbbbuvvvuuuuuuttt
(PID.TID 0000.0001)     11 qppqrrsssssrrsrrqqppprrpqqqppqqqqqqbbsttsssbrrrrrrrrrrrrrrssrqrrrrrssrqpbbbbprstssrssrrrqq
(PID.TID 0000.0001)     10 mmmmnooppppppponnnnnnnnmmmmmmnooopppbqrrrrqbpqqqqqqpppqqppppoopppooopppobboopppppooooppoon
(PID.TID 0000.0001)      9 jjiiijjkkjkkkkjjjijjjjjiiijjijkllnnmmnooopbnnoooooooooooonnmmmnnmmllmmnmbmnnnnmmmllkkllkjj
(PID.TID 0000.0001)      8 ggggggghggghiihhhgghhihgghhhhiijjjkkkkllmmmllllllllmmmllllkkkjkkkkkkkklkbkllkkkjiiihhhggff
(PID.TID 0000.0001)      7 eeeeeeffggfffggggfffffeeffggggghhhhhhiijkkkjjjkkkjjjiiiiiiiiiiiiiiiiijjjiijjiihhgfffffeeee
(PID.TID 0000.0001)      6 ddddeeeeeeeeeefeffeeeefffeeedeefffffggghhiiihhhiihgfffgggggggffghhhhhhhhhhhhhgffeeeedddddd
(PID.TID 0000.0001)      5 dddeeeeddeeeeeeeeeeeeeeedddeeeeefeeeeeffffggffffffeddeeeeeeeeeeffffffffffffeeeeddddddcdccd
(PID.TID 0000.0001)      4 dddddddccddcccccccdcccccbbbcccccccccccdddddddddcddddddddddddddddddddddddddbbbbbcccdddccccd
(PID.TID 0000.0001)      3 ccccbbbaaabbbbbbbbbbbbbbbbbbbbbbbbbbbbbbbbbcccccccccccccbbbbbbbbbbbbbbbbbbbbbaaabbcccccbbb
(PID.TID 0000.0001)      2 bbbbbbbbbbbbbbbbbbbbbbbbbbbbbbbbbbbbbbbbbbbbccccbbbbbaaaaaaaaababbaaaabbbbbaaaaabbbbbbbbbb
(PID.TID 0000.0001)      1 bbbbbbbbbbbbbbbbbbbbbbbbbbbbbbbbbbbbbbbbbbbbbbbbbbbbbbbbbbbbbbbbbbbbbbbbbbbbbbbbbbbbbbbbbb
(PID.TID 0000.0001) // =======================================================
(PID.TID 0000.0001) // END OF FIELD                                          =
(PID.TID 0000.0001) // =======================================================
(PID.TID 0000.0001) 
(PID.TID 0000.0001) // =======================================================
(PID.TID 0000.0001) // Field Current etaN   at iteration         60
(PID.TID 0000.0001) // CMIN =         -1.899703329369118E+00
(PID.TID 0000.0001) // CMAX =          9.463164780956499E-01
(PID.TID 0000.0001) // CINT =          1.054081410172136E-01
(PID.TID 0000.0001) // SYMBOLS (CMIN->CMAX): -abcdefghijklmnopqrstuvwxyz+
(PID.TID 0000.0001) //                  0.0: .
(PID.TID 0000.0001) // RANGE I (Lo:Hi:Step):(    -1:    92:     1)
(PID.TID 0000.0001) // RANGE J (Lo:Hi:Step):(    42:    -1:    -1)
(PID.TID 0000.0001) // RANGE K (Lo:Hi:Step):(   1:   1:   1)
(PID.TID 0000.0001) // =======================================================
(PID.TID 0000.0001) K =   1
(PID.TID 0000.0001)                I=8       I=18      I=28      I=38      I=48      I=58      I=68      I=78      I=88
(PID.TID 0000.0001) |--J--|101234567|901234567|901234567|901234567|901234567|901234567|901234567|901234567|901234567|9012
(PID.TID 0000.0001)     42 ............................................bbccccccddddeeddddcddd..eddd.....-aaaaabbbbaa.....
(PID.TID 0000.0001)     41 ..............................................................................................
(PID.TID 0000.0001)     40 jjiiijj.lllkkkkkkkkkk..................................................................jjjjjii
(PID.TID 0000.0001)     39 jiiiiijkkkkkkkkk...kk.....................................................hhhh........jjjjjiii
(PID.TID 0000.0001)     38 jjjjjkkkkkkkkkl...........................................................hhhhh......ljjjjjjjj
(PID.TID 0000.0001)     37 jjjkl..................................................................kk...iih...jjiji.ijjjjk
(PID.TID 0000.0001)     36 jkkm.........................................qqrq....................kkllkjiiihh.khghiijjjjkkm
(PID.TID 0000.0001)     35 llll.................................pppp..qqqqqqq...trrss...........lll....iggggggghhiijjllll
(PID.TID 0000.0001)     34 .....................................pppp.qqqqqqqr.rqqqqrst..................iihgggghijjkm....
(PID.TID 0000.0001)     33 k.....................................qqpqqqqqqqqqrrqqqrrsstt.................kihiiijkkllkk...
(PID.TID 0000.0001)     32 m.....................................qqqppqqqqrrrrrrrrssssst................ejjjjklllmlllm...
(PID.TID 0000.0001)     31 ......................................pqqqqqrrssssssssstttttt..............kklllllmmmmmlll....
(PID.TID 0000.0001)     30 .....................................rssssssttstttttttuuuuuuu............jlmnooooooonnmmmm....
(PID.TID 0000.0001)     29 ...................................uvvvwvvvvvvvuvvvvvuuvvvvvut...........moppqppppooonnmmm....
(PID.TID 0000.0001)     28 .................................uwwxyyyyxxxxxwwwwwwvvvvvvvvuut.........ppqqqqqppppoonnnmn....
(PID.TID 0000.0001)     27 ................ss..............yxyyyyyyyyyyyxxxxwwwwwwwwvvvuuut...rqqq.qrqqqqqppoooonnm......
(PID.TID 0000.0001)     26 ................sss...........zzzzzzzzzzzzzzyyyyxxxxxxwwwwvvuuuutu.rrqrsrsrrrrqqppoooonn......
(PID.TID 0000.0001)     25 ................tstt...vuu...zzyy+zzzzzzzzzzyyyxxxxxxxwwwwvvuuuuuuv...rssssrrqqpppooonnn......
(PID.TID 0000.0001)     24 ..............tttttuu.vvvv...zzy.+zyyyxxyyyyyxxxwwwwwwwvvvvuuuvvvvvvuu.srrrrqqqqpppooonn......
(PID.TID 0000.0001)     23 ..............ttttuuu.vuvv...zzz..yxxxxxxxxxxxxwwwwwwwwvvvvvuuuuuuuuuuu....rqqqqppppoooo......
(PID.TID 0000.0001)     22 pqq...........tttttuuvvvvv...+z.yzyyxxxxxxxxxxxxxxxxxxxwwwwwvvvvvuuuuuvv......rqqqppppppqppqq.
(PID.TID 0000.0001)     21 qpppp........uuuttttuuvvvww.....yzzyyyyyyyyyyyyyyyxxxxxxxxwwwvvvvvvuuuuv........qqqqqqqqqqqppp
(PID.TID 0000.0001)     20 ppppp.......vuuuuuuuuvvvvww......y.yyyzzzzzzyyyyyyxxxxxxwwwwwvvvvvvuuuuu.........qqqqqqqpppppp
(PID.TID 0000.0001)     19 ppppp.......vvvuuvuuuvvvvvvvv...xxx.....yyyyyyyxxxxxxxxwwwvvvvvvuuuuuuuu...........rqqqppppppp
(PID.TID 0000.0001)     18 poooo.......wvvuuuuuuuuuvvvvvvwwwxx...zzyyyyyxxxxxxxxxxwwwwvvvvuuuuuuuuut..........rqqpppppooo
(PID.TID 0000.0001)     17 ooooo.......w.xvvuuvvvvvvvvvvvvww.....zyyyyyyyyxxyyyyyxxwwwwwvvvvuuuuuutt.........ssrqqpoooooo
(PID.TID 0000.0001)     16 ppooo......xw.yxwwwwwwwvvvvvvvvw.......yyyyyyyyyyyyyyyyxxxxxxxwwvvvuuuuttt........ssrrrqqpppoo
(PID.TID 0000.0001)     15 qqppoo....xxv.xxwwwvwvvvvvuuuuv.........xxxxxxyyxxyyyyyxxxxyxxxwwvvvvuuttss......rssssssrrqqpp
(PID.TID 0000.0001)     14 rrqqpo....wxvvwwwvvvvvuuuuutttt.........wxwwxxxxwwxxxxxxxxxxxxxxwwvvvvuuuts.....rrssssssssrrqq
(PID.TID 0000.0001)     13 srrqqo....vxwvvvvuuuuuuuuuttsss.........vwwwwvvvvvvvvvvwwwwxxxxxwwwvvvvuuts....qrrrsrssssssrrq
(PID.TID 0000.0001)     12 srrqqppnrsvwwvvvvuuutttuuutsssssssss....uvvvuuuuuuuuuuuuvvvvvwwvwwwvvvuuts.....qqrrrrrsssssrrq
(PID.TID 0000.0001)     11 rqqqppqrsttvvvuvvuttttstttssssrrsssss..ttuuuu.tuttttttuuuuuuuvuuvwvuuuutts....nppppqppqqqrrqqq
(PID.TID 0000.0001)     10 poooooooppqqrqpqrrqqqqqqqqrrqqqqqqrrrr.sttttu.rssstttttuuuuutttuuvuttsssst..olnoonmmnnnooppooo
(PID.TID 0000.0001)      9 lllllllkklmmllkklllkklnnnnnnooooppqrsrrrssss.srrrsttttttuuuutssttttsrrrrrr.nnmmmlkjjjjjkllllll
(PID.TID 0000.0001)      8 ggghhhgggghhhhhhhijighijjjjjkkklmmnoppppqrrstrppqqqrrrsssssssrrrsssrrqqqru.mmlkkihffffgggggggh
(PID.TID 0000.0001)      7 ddddccddeeeeeeeeffghfeeeffggghhiiijjjjjjkmopoonnnnnnnnnoopoooooppppppoopoppnmmkihgeddddddddddd
(PID.TID 0000.0001)      6 baaaabbccccccddddeefeddddddeefffffffffffgijkllkkkkjjjiiijkkllllllmmmllllllkkjihfedcccbcccbbaaa
(PID.TID 0000.0001)      5 aaaaaabbbbbbbbccccddddcccccccddddddddddddefffgggggfffeeeefghiiiiiiiiihhhhggedcbbbaaaaaaaaaaaaa
(PID.TID 0000.0001)      4 aaaaaaabbbbbccccccccccccccccccccccdccccccccccdddddcccccddeefffffffffffeeeeee..-aaaaaaaaaaaaaaa
(PID.TID 0000.0001)      3 aabbbbbbbccc............................ccccccccccccccccdddddddddddddddddee..aaa-aaaaaaaaaaabb
(PID.TID 0000.0001)      2 ............................................bbccccccddddeeddddcddd..eddd.....-aaaaabbbbaa.....
(PID.TID 0000.0001)      1 ..............................................................................................
(PID.TID 0000.0001)      0 jjiiijj.lllkkkkkkkkkk..................................................................jjjjjii
(PID.TID 0000.0001)     -1 jiiiiijkkkkkkkkk...kk.....................................................hhhh........jjjjjiii
(PID.TID 0000.0001) // =======================================================
(PID.TID 0000.0001) // END OF FIELD                                          =
(PID.TID 0000.0001) // =======================================================
(PID.TID 0000.0001) 
(PID.TID 0000.0001)  MDS_WRITE_FIELD: it,rec,kS,kL,kH=      60     1  15   1  15 file=U.0000000060
(PID.TID 0000.0001)  MDS_WRITE_FIELD: it,rec,kS,kL,kH=      60     1  15   1  15 file=V.0000000060
(PID.TID 0000.0001)  MDS_WRITE_FIELD: it,rec,kS,kL,kH=      60     1  15   1  15 file=T.0000000060
(PID.TID 0000.0001)  MDS_WRITE_FIELD: it,rec,kS,kL,kH=      60     1  15   1  15 file=S.0000000060
(PID.TID 0000.0001)  MDS_WRITE_FIELD: it,rec,kS,kL,kH=      60     1   1   1   1 file=Eta.0000000060
(PID.TID 0000.0001)  MDS_WRITE_FIELD: it,rec,kS,kL,kH=      60     1  15   1  15 file=W.0000000060
(PID.TID 0000.0001)  MDS_WRITE_FIELD: it,rec,kS,kL,kH=      60     1  15   1  15 file=PH.0000000060
(PID.TID 0000.0001)  MDS_WRITE_FIELD: it,rec,kS,kL,kH=      60     1   1   1   1 file=PHL.0000000060
(PID.TID 0000.0001)  MDS_WRITE_FIELD: it,rec,kS,kL,kH=      60     1   1   1   1 file=ETAtave.0000000060
(PID.TID 0000.0001)  MDS_WRITE_FIELD: it,rec,kS,kL,kH=      60     1  15   1  15 file=Ttave.0000000060
(PID.TID 0000.0001)  MDS_WRITE_FIELD: it,rec,kS,kL,kH=      60     1  15   1  15 file=Stave.0000000060
(PID.TID 0000.0001)  MDS_WRITE_FIELD: it,rec,kS,kL,kH=      60     1  15   1  15 file=uVeltave.0000000060
(PID.TID 0000.0001)  MDS_WRITE_FIELD: it,rec,kS,kL,kH=      60     1  15   1  15 file=vVeltave.0000000060
(PID.TID 0000.0001)  MDS_WRITE_FIELD: it,rec,kS,kL,kH=      60     1  15   1  15 file=wVeltave.0000000060
(PID.TID 0000.0001)  MDS_WRITE_FIELD: it,rec,kS,kL,kH=      60     1   1   1   1 file=Eta2tave.0000000060
(PID.TID 0000.0001)  MDS_WRITE_FIELD: it,rec,kS,kL,kH=      60     1  15   1  15 file=UTtave.0000000060
(PID.TID 0000.0001)  MDS_WRITE_FIELD: it,rec,kS,kL,kH=      60     1  15   1  15 file=VTtave.0000000060
(PID.TID 0000.0001)  MDS_WRITE_FIELD: it,rec,kS,kL,kH=      60     1  15   1  15 file=WTtave.0000000060
(PID.TID 0000.0001)  MDS_WRITE_FIELD: it,rec,kS,kL,kH=      60     1  15   1  15 file=UStave.0000000060
(PID.TID 0000.0001)  MDS_WRITE_FIELD: it,rec,kS,kL,kH=      60     1  15   1  15 file=VStave.0000000060
(PID.TID 0000.0001)  MDS_WRITE_FIELD: it,rec,kS,kL,kH=      60     1  15   1  15 file=WStave.0000000060
(PID.TID 0000.0001)  MDS_WRITE_FIELD: it,rec,kS,kL,kH=      60     1  15   1  15 file=TTtave.0000000060
(PID.TID 0000.0001)  MDS_WRITE_FIELD: it,rec,kS,kL,kH=      60     1  15   1  15 file=UUtave.0000000060
(PID.TID 0000.0001)  MDS_WRITE_FIELD: it,rec,kS,kL,kH=      60     1  15   1  15 file=VVtave.0000000060
(PID.TID 0000.0001)  MDS_WRITE_FIELD: it,rec,kS,kL,kH=      60     1  15   1  15 file=UVtave.0000000060
(PID.TID 0000.0001)  MDS_WRITE_FIELD: it,rec,kS,kL,kH=      60     1  15   1  15 file=Tdiftave.0000000060
(PID.TID 0000.0001)  MDS_WRITE_FIELD: it,rec,kS,kL,kH=      60     1  15   1  15 file=PhHytave.0000000060
(PID.TID 0000.0001)  MDS_WRITE_FIELD: it,rec,kS,kL,kH=      60     1   1   1   1 file=PHLtave.0000000060
(PID.TID 0000.0001)  MDS_WRITE_FIELD: it,rec,kS,kL,kH=      60     1   1   1   1 file=uFluxtave.0000000060
(PID.TID 0000.0001)  MDS_WRITE_FIELD: it,rec,kS,kL,kH=      60     1   1   1   1 file=vFluxtave.0000000060
(PID.TID 0000.0001)  MDS_WRITE_FIELD: it,rec,kS,kL,kH=      60     1   1   1   1 file=tFluxtave.0000000060
(PID.TID 0000.0001)  MDS_WRITE_FIELD: it,rec,kS,kL,kH=      60     1   1   1   1 file=sFluxtave.0000000060
(PID.TID 0000.0001)  MDS_WRITE_FIELD: it,rec,kS,kL,kH=      60     1   1   1   1 file=PHL2tave.0000000060
(PID.TID 0000.0001)  MDS_WRITE_FIELD: it,rec,kS,kL,kH=      60     1  15   1  15 file=Convtave.0000000060
(PID.TID 0000.0001) // Time-average data written, t-step        60
(PID.TID 0000.0001) 
(PID.TID 0000.0001)  MDS_WRITE_FIELD: it,rec,kS,kL,kH=      60     1  15   1  15 file=GM_Kwx-T.0000000060
(PID.TID 0000.0001)  MDS_WRITE_FIELD: it,rec,kS,kL,kH=      60     1  15   1  15 file=GM_Kwy-T.0000000060
(PID.TID 0000.0001)  MDS_WRITE_FIELD: it,rec,kS,kL,kH=      60     1  15   1  15 file=GM_Kwz-T.0000000060
(PID.TID 0000.0001)  MDS_WRITE_FIELD: it,rec,kS,kL,kH=      60     1  15   1  15 file=pickup_cd.0000000060
(PID.TID 0000.0001)  MDS_WRITE_FIELD: it,rec,kS,kL,kH=      60     2  15   1  15 file=pickup_cd.0000000060
(PID.TID 0000.0001)  MDS_WRITE_FIELD: it,rec,kS,kL,kH=      60     3  15   1  15 file=pickup_cd.0000000060
(PID.TID 0000.0001)  MDS_WRITE_FIELD: it,rec,kS,kL,kH=      60     4  15   1  15 file=pickup_cd.0000000060
(PID.TID 0000.0001)  MDS_WRITE_FIELD: it,rec,kS,kL,kH=      60    61   1   1   1 file=pickup_cd.0000000060
(PID.TID 0000.0001)  MDS_WRITE_FIELD: it,rec,kS,kL,kH=      60    -1  15   1  15 file=pickup.0000000060
(PID.TID 0000.0001)  MDS_WRITE_FIELD: it,rec,kS,kL,kH=      60    -2  15   1  15 file=pickup.0000000060
(PID.TID 0000.0001)  MDS_WRITE_FIELD: it,rec,kS,kL,kH=      60    -3  15   1  15 file=pickup.0000000060
(PID.TID 0000.0001)  MDS_WRITE_FIELD: it,rec,kS,kL,kH=      60    -4  15   1  15 file=pickup.0000000060
(PID.TID 0000.0001)  MDS_WRITE_FIELD: it,rec,kS,kL,kH=      60    -5  15   1  15 file=pickup.0000000060
(PID.TID 0000.0001)  MDS_WRITE_FIELD: it,rec,kS,kL,kH=      60    -6  15   1  15 file=pickup.0000000060
(PID.TID 0000.0001)  MDS_WRITE_FIELD: it,rec,kS,kL,kH=      60    -7  15   1  15 file=pickup.0000000060
(PID.TID 0000.0001)  MDS_WRITE_FIELD: it,rec,kS,kL,kH=      60    -8  15   1  15 file=pickup.0000000060
(PID.TID 0000.0001)  MDS_WRITE_FIELD: it,rec,kS,kL,kH=      60  -121   1   1   1 file=pickup.0000000060
(PID.TID 0000.0001)  MDS_WRITE_FIELD: it,rec,kS,kL,kH=      60  -122   1   1   1 file=pickup.0000000060
(PID.TID 0000.0001)  MDS_WRITE_FIELD: it,rec,kS,kL,kH=      60  -123   1   1   1 file=pickup.0000000060
(PID.TID 0000.0001) %CHECKPOINT        60 0000000060
(PID.TID 0000.0001)  MDS_WRITE_FIELD: it,rec,kS,kL,kH=      60     1   1   1   1 file=ETAN_forecast.0000000060
(PID.TID 0000.0001)  MDS_WRITE_FIELD: it,rec,kS,kL,kH=      60     1  15   1  15 file=THETA_forecast.0000000060
(PID.TID 0000.0001)  MDS_WRITE_FIELD: it,rec,kS,kL,kH=      60     1  15   1  15 file=SALT_forecast.0000000060
(PID.TID 0000.0001)  MDS_WRITE_FIELD: it,rec,kS,kL,kH=      60     1  15   1  15 file=UVEL_forecast.0000000060
(PID.TID 0000.0001)  MDS_WRITE_FIELD: it,rec,kS,kL,kH=      60     1  15   1  15 file=VVEL_forecast.0000000060
(PID.TID 0000.0001)  MDS_WRITE_FIELD: it,rec,kS,kL,kH=      60     1   1   1   1 file=ETAN_analysis.0000000060
(PID.TID 0000.0001)  MDS_WRITE_FIELD: it,rec,kS,kL,kH=      60     1  15   1  15 file=THETA_analysis.0000000060
(PID.TID 0000.0001)  MDS_WRITE_FIELD: it,rec,kS,kL,kH=      60     1  15   1  15 file=SALT_analysis.0000000060
(PID.TID 0000.0001)  MDS_WRITE_FIELD: it,rec,kS,kL,kH=      60     1  15   1  15 file=UVEL_analysis.0000000060
(PID.TID 0000.0001)  MDS_WRITE_FIELD: it,rec,kS,kL,kH=      60     1  15   1  15 file=VVEL_analysis.0000000060
 EXTERNAL_FIELDS_LOAD,        60 : iP,iLd,i0,i1=    2    3    2    3 ; Wght=  0.5000000000  0.5000000000
 EXTERNAL_FIELDS_LOAD: (fu0,1),fu,fv= -1.4435E-02 -2.7199E-02 -2.0817E-02 -9.1068E-03
 EXTERNAL_FIELDS_LOAD: SST,SSS,Q,E-P= -3.5788E-01  3.4500E+01  2.2794E+02  8.7290E-06
DEBUG_STATS_RL:          Uvel (THERMODYNAMICS)  min= -1.24653731737131E-01
DEBUG_STATS_RL:          Uvel (THERMODYNAMICS)  max=  1.37680085522756E-01
DEBUG_STATS_RL:          Uvel (THERMODYNAMICS) mean=  5.24114910563175E-03
DEBUG_STATS_RL:          Uvel (THERMODYNAMICS) S.D.=  2.00745357019315E-02
DEBUG_STATS_RL:          Vvel (THERMODYNAMICS)  min= -9.18825572464901E-02
DEBUG_STATS_RL:          Vvel (THERMODYNAMICS)  max=  1.38238831289841E-01
DEBUG_STATS_RL:          Vvel (THERMODYNAMICS) mean=  9.29194286079578E-04
DEBUG_STATS_RL:          Vvel (THERMODYNAMICS) S.D.=  1.35977066186925E-02
DEBUG_STATS_RL:          Wvel (THERMODYNAMICS)  min= -6.30462458119179E-05
DEBUG_STATS_RL:          Wvel (THERMODYNAMICS)  max=  1.05482680268263E-04
DEBUG_STATS_RL:          Wvel (THERMODYNAMICS) mean= -6.19625485850747E-08
DEBUG_STATS_RL:          Wvel (THERMODYNAMICS) S.D.=  9.68340574969713E-06
DEBUG_STATS_RL:         Theta (THERMODYNAMICS)  min= -1.96653110190315E+00
DEBUG_STATS_RL:         Theta (THERMODYNAMICS)  max=  3.05303085188802E+01
DEBUG_STATS_RL:         Theta (THERMODYNAMICS) mean=  3.21949025239152E+00
DEBUG_STATS_RL:         Theta (THERMODYNAMICS) S.D.=  5.87748181904713E+00
DEBUG_STATS_RL:          Salt (THERMODYNAMICS)  min= -2.42861286636753E-17
DEBUG_STATS_RL:          Salt (THERMODYNAMICS)  max=  3.74672509568754E+01
DEBUG_STATS_RL:          Salt (THERMODYNAMICS) mean=  1.88448381102611E+01
DEBUG_STATS_RL:          Salt (THERMODYNAMICS) S.D.=  1.73003685827897E+01
DEBUG_STATS_RL:         GtNm1 (THERMODYNAMICS)  min= -5.35729366390681E-06
DEBUG_STATS_RL:         GtNm1 (THERMODYNAMICS)  max=  2.84248846265406E-06
DEBUG_STATS_RL:         GtNm1 (THERMODYNAMICS) mean=  2.10209463121198E-09
DEBUG_STATS_RL:         GtNm1 (THERMODYNAMICS) S.D.=  1.71134854123944E-07
DEBUG_STATS_RL:         GsNm1 (THERMODYNAMICS)  min= -5.53220824880870E-07
DEBUG_STATS_RL:         GsNm1 (THERMODYNAMICS)  max=  3.87956582673671E-07
DEBUG_STATS_RL:         GsNm1 (THERMODYNAMICS) mean= -4.77993961771281E-10
DEBUG_STATS_RL:         GsNm1 (THERMODYNAMICS) S.D.=  1.71300687962020E-08
DEBUG_STATS_RL:                EtaN (DYNAMICS)  min= -1.89970332936912E+00
DEBUG_STATS_RL:                EtaN (DYNAMICS)  max=  9.46316478095650E-01
DEBUG_STATS_RL:                EtaN (DYNAMICS) mean= -1.89516089577642E-01
DEBUG_STATS_RL:                EtaN (DYNAMICS) S.D.=  7.46208977049402E-01
DEBUG_STATS_RL:                Uvel (DYNAMICS)  min= -1.24653731737131E-01
DEBUG_STATS_RL:                Uvel (DYNAMICS)  max=  1.37680085522756E-01
DEBUG_STATS_RL:                Uvel (DYNAMICS) mean=  5.24114910563175E-03
DEBUG_STATS_RL:                Uvel (DYNAMICS) S.D.=  2.00745357019315E-02
DEBUG_STATS_RL:                Vvel (DYNAMICS)  min= -9.18825572464901E-02
DEBUG_STATS_RL:                Vvel (DYNAMICS)  max=  1.38238831289841E-01
DEBUG_STATS_RL:                Vvel (DYNAMICS) mean=  9.29194286079578E-04
DEBUG_STATS_RL:                Vvel (DYNAMICS) S.D.=  1.35977066186925E-02
DEBUG_STATS_RL:                Wvel (DYNAMICS)  min= -6.30462458119179E-05
DEBUG_STATS_RL:                Wvel (DYNAMICS)  max=  1.05482680268263E-04
DEBUG_STATS_RL:                Wvel (DYNAMICS) mean= -6.19625485850747E-08
DEBUG_STATS_RL:                Wvel (DYNAMICS) S.D.=  9.68340574969713E-06
DEBUG_STATS_RL:               Theta (DYNAMICS)  min= -1.96653110190315E+00
DEBUG_STATS_RL:               Theta (DYNAMICS)  max=  3.05303085188802E+01
DEBUG_STATS_RL:               Theta (DYNAMICS) mean=  3.21949025239152E+00
DEBUG_STATS_RL:               Theta (DYNAMICS) S.D.=  5.87748181904713E+00
DEBUG_STATS_RL:                Salt (DYNAMICS)  min= -2.42861286636753E-17
DEBUG_STATS_RL:                Salt (DYNAMICS)  max=  3.74672509568754E+01
DEBUG_STATS_RL:                Salt (DYNAMICS) mean=  1.88448381102611E+01
DEBUG_STATS_RL:                Salt (DYNAMICS) S.D.=  1.73003685827897E+01
DEBUG_STATS_RL:                  Gu (DYNAMICS)  min= -1.24540662005347E-01
DEBUG_STATS_RL:                  Gu (DYNAMICS)  max=  1.26435589228319E-01
DEBUG_STATS_RL:                  Gu (DYNAMICS) mean=  5.21140754676306E-03
DEBUG_STATS_RL:                  Gu (DYNAMICS) S.D.=  2.03177966143095E-02
DEBUG_STATS_RL:                  Gv (DYNAMICS)  min= -1.00729279747131E-01
DEBUG_STATS_RL:                  Gv (DYNAMICS)  max=  1.39273922944179E-01
DEBUG_STATS_RL:                  Gv (DYNAMICS) mean=  3.36342246483781E-03
DEBUG_STATS_RL:                  Gv (DYNAMICS) S.D.=  1.49957568464664E-02
DEBUG_STATS_RL:               GuNm1 (DYNAMICS)  min= -9.83716701608001E-06
DEBUG_STATS_RL:               GuNm1 (DYNAMICS)  max=  9.25537106965588E-06
DEBUG_STATS_RL:               GuNm1 (DYNAMICS) mean=  1.07100109726765E-09
DEBUG_STATS_RL:               GuNm1 (DYNAMICS) S.D.=  1.19362583591087E-06
DEBUG_STATS_RL:               GvNm1 (DYNAMICS)  min= -9.88436760451033E-06
DEBUG_STATS_RL:               GvNm1 (DYNAMICS)  max=  1.59030473230857E-05
DEBUG_STATS_RL:               GvNm1 (DYNAMICS) mean=  7.38669033617347E-07
DEBUG_STATS_RL:               GvNm1 (DYNAMICS) S.D.=  2.64005840768931E-06
DEBUG_STATS_RL:               GtNm1 (DYNAMICS)  min= -5.35729366390681E-06
DEBUG_STATS_RL:               GtNm1 (DYNAMICS)  max=  2.84248846265406E-06
DEBUG_STATS_RL:               GtNm1 (DYNAMICS) mean=  2.10209463121198E-09
DEBUG_STATS_RL:               GtNm1 (DYNAMICS) S.D.=  1.71134854123944E-07
DEBUG_STATS_RL:               GsNm1 (DYNAMICS)  min= -5.53220824880870E-07
DEBUG_STATS_RL:               GsNm1 (DYNAMICS)  max=  3.87956582673671E-07
DEBUG_STATS_RL:               GsNm1 (DYNAMICS) mean= -4.77993961771281E-10
DEBUG_STATS_RL:               GsNm1 (DYNAMICS) S.D.=  1.71300687962020E-08
DEBUG_STATS_RL:    cg2d_b (SOLVE_FOR_PRESSURE)  min= -2.04327772391605E+04
DEBUG_STATS_RL:    cg2d_b (SOLVE_FOR_PRESSURE)  max=  2.51822093019762E+04
DEBUG_STATS_RL:    cg2d_b (SOLVE_FOR_PRESSURE) mean=  4.33485613067348E+00
DEBUG_STATS_RL:    cg2d_b (SOLVE_FOR_PRESSURE) S.D.=  3.90675633164283E+03
 cg2d: Sum(rhs),rhsMax =   3.98503237828442E-01  1.65403493044846E+00
(PID.TID 0000.0001)  cg2d: iter=     1 ; resid.=  6.59313697310871E-02
(PID.TID 0000.0001)  cg2d: iter=     2 ; resid.=  3.67644917274413E-02
(PID.TID 0000.0001)  cg2d: iter=     3 ; resid.=  2.97638450570658E-02
(PID.TID 0000.0001)  cg2d: iter=     4 ; resid.=  2.72239437729431E-02
(PID.TID 0000.0001)  cg2d: iter=     5 ; resid.=  2.84758988967348E-02
(PID.TID 0000.0001)  cg2d: iter=     6 ; resid.=  2.63834234993204E-02
(PID.TID 0000.0001)  cg2d: iter=     7 ; resid.=  2.23012641687557E-02
(PID.TID 0000.0001)  cg2d: iter=     8 ; resid.=  1.74707915853827E-02
(PID.TID 0000.0001)  cg2d: iter=     9 ; resid.=  1.41230930107729E-02
(PID.TID 0000.0001)  cg2d: iter=    10 ; resid.=  1.15343457852383E-02
(PID.TID 0000.0001)  cg2d: iter=    11 ; resid.=  8.86785999617281E-03
(PID.TID 0000.0001)  cg2d: iter=    12 ; resid.=  7.18563470629436E-03
(PID.TID 0000.0001)  cg2d: iter=    13 ; resid.=  5.59770008506914E-03
(PID.TID 0000.0001)  cg2d: iter=    14 ; resid.=  4.74863729695540E-03
(PID.TID 0000.0001)  cg2d: iter=    15 ; resid.=  4.27344152565338E-03
(PID.TID 0000.0001)  cg2d: iter=    16 ; resid.=  3.52777918875469E-03
(PID.TID 0000.0001)  cg2d: iter=    17 ; resid.=  2.82506001671253E-03
(PID.TID 0000.0001)  cg2d: iter=    18 ; resid.=  2.51634564165917E-03
(PID.TID 0000.0001)  cg2d: iter=    19 ; resid.=  2.18018005196732E-03
(PID.TID 0000.0001)  cg2d: iter=    20 ; resid.=  1.70813923749251E-03
(PID.TID 0000.0001)  cg2d: iter=    21 ; resid.=  1.33497484481138E-03
(PID.TID 0000.0001)  cg2d: iter=    22 ; resid.=  1.08700701941327E-03
(PID.TID 0000.0001)  cg2d: iter=    23 ; resid.=  8.84901697826112E-04
(PID.TID 0000.0001)  cg2d: iter=    24 ; resid.=  7.90230125948629E-04
(PID.TID 0000.0001)  cg2d: iter=    25 ; resid.=  6.94569578524368E-04
(PID.TID 0000.0001)  cg2d: iter=    26 ; resid.=  5.61565688931482E-04
(PID.TID 0000.0001)  cg2d: iter=    27 ; resid.=  4.90438828759897E-04
(PID.TID 0000.0001)  cg2d: iter=    28 ; resid.=  4.36679156032565E-04
(PID.TID 0000.0001)  cg2d: iter=    29 ; resid.=  3.43014165452151E-04
(PID.TID 0000.0001)  cg2d: iter=    30 ; resid.=  2.65279372188347E-04
(PID.TID 0000.0001)  cg2d: iter=    31 ; resid.=  2.34926023339380E-04
(PID.TID 0000.0001)  cg2d: iter=    32 ; resid.=  1.82955245809564E-04
(PID.TID 0000.0001)  cg2d: iter=    33 ; resid.=  1.38318498133508E-04
(PID.TID 0000.0001)  cg2d: iter=    34 ; resid.=  1.09768853648580E-04
(PID.TID 0000.0001)  cg2d: iter=    35 ; resid.=  8.28918685207107E-05
(PID.TID 0000.0001)  cg2d: iter=    36 ; resid.=  6.55890531687267E-05
(PID.TID 0000.0001)  cg2d: iter=    37 ; resid.=  5.27658087834817E-05
(PID.TID 0000.0001)  cg2d: iter=    38 ; resid.=  4.64480958953976E-05
(PID.TID 0000.0001)  cg2d: iter=    39 ; resid.=  4.06580447971027E-05
(PID.TID 0000.0001)  cg2d: iter=    40 ; resid.=  3.61695015466273E-05
(PID.TID 0000.0001)  cg2d: iter=    41 ; resid.=  3.02078804705421E-05
(PID.TID 0000.0001)  cg2d: iter=    42 ; resid.=  2.48971897675002E-05
(PID.TID 0000.0001)  cg2d: iter=    43 ; resid.=  2.13171427380597E-05
(PID.TID 0000.0001)  cg2d: iter=    44 ; resid.=  1.72336045399969E-05
(PID.TID 0000.0001)  cg2d: iter=    45 ; resid.=  1.32021861277865E-05
(PID.TID 0000.0001)  cg2d: iter=    46 ; resid.=  1.07747999421244E-05
(PID.TID 0000.0001)  cg2d: iter=    47 ; resid.=  8.95709450615189E-06
(PID.TID 0000.0001)  cg2d: iter=    48 ; resid.=  7.57956806524596E-06
(PID.TID 0000.0001)  cg2d: iter=    49 ; resid.=  6.75023340316024E-06
(PID.TID 0000.0001)  cg2d: iter=    50 ; resid.=  5.94625629641695E-06
(PID.TID 0000.0001)  cg2d: iter=    51 ; resid.=  5.38043874266724E-06
(PID.TID 0000.0001)  cg2d: iter=    52 ; resid.=  4.49704815219148E-06
(PID.TID 0000.0001)  cg2d: iter=    53 ; resid.=  3.82820300488066E-06
(PID.TID 0000.0001)  cg2d: iter=    54 ; resid.=  3.21788297067599E-06
(PID.TID 0000.0001)  cg2d: iter=    55 ; resid.=  2.56877953534470E-06
(PID.TID 0000.0001)  cg2d: iter=    56 ; resid.=  2.09170121650220E-06
(PID.TID 0000.0001)  cg2d: iter=    57 ; resid.=  1.75337563324518E-06
(PID.TID 0000.0001)  cg2d: iter=    58 ; resid.=  1.47224995134251E-06
(PID.TID 0000.0001)  cg2d: iter=    59 ; resid.=  1.30789958430575E-06
(PID.TID 0000.0001)  cg2d: iter=    60 ; resid.=  1.10012105980514E-06
(PID.TID 0000.0001)  cg2d: iter=    61 ; resid.=  9.44439003080126E-07
(PID.TID 0000.0001)  cg2d: iter=    62 ; resid.=  8.07654128463077E-07
(PID.TID 0000.0001)  cg2d: iter=    63 ; resid.=  6.20281129540730E-07
(PID.TID 0000.0001)  cg2d: iter=    64 ; resid.=  4.99077162347652E-07
(PID.TID 0000.0001)  cg2d: iter=    65 ; resid.=  4.06358768247396E-07
(PID.TID 0000.0001)  cg2d: iter=    66 ; resid.=  3.38400345990882E-07
(PID.TID 0000.0001)  cg2d: iter=    67 ; resid.=  2.57707237656604E-07
(PID.TID 0000.0001)  cg2d: iter=    68 ; resid.=  1.93895468929905E-07
(PID.TID 0000.0001)  cg2d: iter=    69 ; resid.=  1.62372127834918E-07
(PID.TID 0000.0001)  cg2d: iter=    70 ; resid.=  1.35179880606622E-07
(PID.TID 0000.0001)  cg2d: iter=    71 ; resid.=  1.31058717813546E-07
(PID.TID 0000.0001)  cg2d: iter=    72 ; resid.=  1.24613014063469E-07
(PID.TID 0000.0001)  cg2d: iter=    73 ; resid.=  1.09344306536744E-07
(PID.TID 0000.0001)  cg2d: iter=    74 ; resid.=  9.32845943128088E-08
(PID.TID 0000.0001)  cg2d: iter=    75 ; resid.=  7.31501916829199E-08
(PID.TID 0000.0001)  cg2d: iter=    76 ; resid.=  6.27055488486400E-08
(PID.TID 0000.0001)  cg2d: iter=    77 ; resid.=  4.84827510096859E-08
(PID.TID 0000.0001)  cg2d: iter=    78 ; resid.=  3.44840511346908E-08
(PID.TID 0000.0001)  cg2d: iter=    79 ; resid.=  2.46649608071979E-08
(PID.TID 0000.0001)  cg2d: iter=    80 ; resid.=  2.00121579250222E-08
(PID.TID 0000.0001)  cg2d: iter=    81 ; resid.=  1.58566210686530E-08
(PID.TID 0000.0001)  cg2d: iter=    82 ; resid.=  1.22003260075223E-08
(PID.TID 0000.0001)  cg2d: iter=    83 ; resid.=  1.01629600349052E-08
(PID.TID 0000.0001)  cg2d: iter=    84 ; resid.=  9.11609119233287E-09
(PID.TID 0000.0001)  cg2d: iter=    85 ; resid.=  6.76001972954364E-09
(PID.TID 0000.0001)  cg2d: iter=    86 ; resid.=  5.09030262681394E-09
(PID.TID 0000.0001)  cg2d: iter=    87 ; resid.=  3.76829776987725E-09
(PID.TID 0000.0001)  cg2d: iter=    88 ; resid.=  2.82193637475904E-09
(PID.TID 0000.0001)  cg2d: iter=    89 ; resid.=  2.21101463276853E-09
(PID.TID 0000.0001)  cg2d: iter=    90 ; resid.=  1.99169176349546E-09
(PID.TID 0000.0001)  cg2d: iter=    91 ; resid.=  1.78062247104273E-09
(PID.TID 0000.0001)  cg2d: iter=    92 ; resid.=  1.44482088809107E-09
(PID.TID 0000.0001)  cg2d: iter=    93 ; resid.=  1.10279920570728E-09
(PID.TID 0000.0001)  cg2d: iter=    94 ; resid.=  9.15391927422871E-10
(PID.TID 0000.0001)  cg2d: iter=    95 ; resid.=  7.86739176622210E-10
(PID.TID 0000.0001)  cg2d: iter=    96 ; resid.=  7.24467879650828E-10
(PID.TID 0000.0001)  cg2d: iter=    97 ; resid.=  5.44370303544486E-10
(PID.TID 0000.0001)  cg2d: iter=    98 ; resid.=  4.10445340952962E-10
(PID.TID 0000.0001)  cg2d: iter=    99 ; resid.=  3.07827244892119E-10
(PID.TID 0000.0001)  cg2d: iter=   100 ; resid.=  2.50517730593590E-10
(PID.TID 0000.0001)  cg2d: iter=   101 ; resid.=  2.20521937954788E-10
(PID.TID 0000.0001)  cg2d: iter=   102 ; resid.=  1.72287071144837E-10
(PID.TID 0000.0001)  cg2d: iter=   103 ; resid.=  1.32490591532855E-10
(PID.TID 0000.0001)  cg2d: iter=   104 ; resid.=  9.72951263117356E-11
(PID.TID 0000.0001)  cg2d: iter=   105 ; resid.=  7.61909207898665E-11
(PID.TID 0000.0001)  cg2d: iter=   106 ; resid.=  6.06049059264674E-11
(PID.TID 0000.0001)  cg2d: iter=   107 ; resid.=  4.37401135101636E-11
(PID.TID 0000.0001)  cg2d: iter=   108 ; resid.=  3.25444600624586E-11
(PID.TID 0000.0001)  cg2d: iter=   109 ; resid.=  2.53315278268288E-11
(PID.TID 0000.0001)  cg2d: iter=   110 ; resid.=  2.16699914237307E-11
(PID.TID 0000.0001)  cg2d: iter=   111 ; resid.=  1.68713274513438E-11
(PID.TID 0000.0001)  cg2d: iter=   112 ; resid.=  1.30057260249264E-11
(PID.TID 0000.0001)  cg2d: iter=   113 ; resid.=  9.43307536805186E-12
(PID.TID 0000.0001)  cg2d: iter=   114 ; resid.=  7.23474737799381E-12
(PID.TID 0000.0001)  cg2d: iter=   115 ; resid.=  5.90900041912038E-12
(PID.TID 0000.0001)  cg2d: iter=   116 ; resid.=  4.68031104896699E-12
(PID.TID 0000.0001)  cg2d: iter=   117 ; resid.=  3.73682163853382E-12
(PID.TID 0000.0001)  cg2d: iter=   118 ; resid.=  2.75238724276606E-12
(PID.TID 0000.0001)  cg2d: iter=   119 ; resid.=  2.02719886027345E-12
(PID.TID 0000.0001)  cg2d: iter=   120 ; resid.=  1.42172345877197E-12
(PID.TID 0000.0001)  cg2d: iter=   121 ; resid.=  9.83952118937502E-13
(PID.TID 0000.0001)  cg2d: iter=   122 ; resid.=  6.76604077633684E-13
(PID.TID 0000.0001)  cg2d: iter=   123 ; resid.=  5.06648386397667E-13
(PID.TID 0000.0001)  cg2d: iter=   124 ; resid.=  3.97347752118807E-13
(PID.TID 0000.0001)  cg2d: iter=   125 ; resid.=  3.11872446267575E-13
(PID.TID 0000.0001)  cg2d: iter=   126 ; resid.=  2.32994921011901E-13
(PID.TID 0000.0001)  cg2d: iter=   127 ; resid.=  1.79752315272017E-13
(PID.TID 0000.0001)  cg2d: iter=   128 ; resid.=  1.28772093363595E-13
(PID.TID 0000.0001)  cg2d: iter=   129 ; resid.=  8.77827840239968E-14
DEBUG_STATS_RL:    cg2d_x (SOLVE_FOR_PRESSURE)  min= -1.85469071500683E+01
DEBUG_STATS_RL:    cg2d_x (SOLVE_FOR_PRESSURE)  max=  9.37837715634101E+00
DEBUG_STATS_RL:    cg2d_x (SOLVE_FOR_PRESSURE) mean= -1.86501172348291E+00
DEBUG_STATS_RL:    cg2d_x (SOLVE_FOR_PRESSURE) S.D.=  7.34861361782146E+00
(PID.TID 0000.0001)      cg2d_init_res =   2.54499341543484E-01
(PID.TID 0000.0001)      cg2d_iters(min,last) =      -1     129
(PID.TID 0000.0001)      cg2d_last_res =   8.77827840239968E-14
(PID.TID 0000.0001) // =======================================================
(PID.TID 0000.0001) // Begin MONITOR dynamic field statistics
(PID.TID 0000.0001) // =======================================================
(PID.TID 0000.0001) %MON time_tsnumber                =                    61
(PID.TID 0000.0001) %MON time_secondsf                =   5.2704000000000E+06
(PID.TID 0000.0001) %MON dynstat_eta_max              =   9.5600174886252E-01
(PID.TID 0000.0001) %MON dynstat_eta_min              =  -1.8906123496502E+00
(PID.TID 0000.0001) %MON dynstat_eta_mean             =  -4.5228848679423E-03
(PID.TID 0000.0001) %MON dynstat_eta_sd               =   6.5775489883704E-01
(PID.TID 0000.0001) %MON dynstat_eta_del2             =   2.3953375997769E-03
(PID.TID 0000.0001) %MON dynstat_uvel_max             =   1.3071471098312E-01
(PID.TID 0000.0001) %MON dynstat_uvel_min             =  -1.2478712761441E-01
(PID.TID 0000.0001) %MON dynstat_uvel_mean            =   2.2183143372508E-03
(PID.TID 0000.0001) %MON dynstat_uvel_sd              =   1.2372218993927E-02
(PID.TID 0000.0001) %MON dynstat_uvel_del2            =   7.7017188794889E-05
(PID.TID 0000.0001) %MON dynstat_vvel_max             =   1.3758469338907E-01
(PID.TID 0000.0001) %MON dynstat_vvel_min             =  -9.0880894930934E-02
(PID.TID 0000.0001) %MON dynstat_vvel_mean            =  -5.6074419535305E-07
(PID.TID 0000.0001) %MON dynstat_vvel_sd              =   8.2312932175090E-03
(PID.TID 0000.0001) %MON dynstat_vvel_del2            =   7.0640702155089E-05
(PID.TID 0000.0001) %MON dynstat_wvel_max             =   1.0457860793930E-04
(PID.TID 0000.0001) %MON dynstat_wvel_min             =  -6.0382308792066E-05
(PID.TID 0000.0001) %MON dynstat_wvel_mean            =   2.7105708617309E-23
(PID.TID 0000.0001) %MON dynstat_wvel_sd              =   1.0805792391645E-05
(PID.TID 0000.0001) %MON dynstat_wvel_del2            =   1.1328587661934E-07
(PID.TID 0000.0001) %MON dynstat_theta_max            =   3.0530308518880E+01
(PID.TID 0000.0001) %MON dynstat_theta_min            =  -1.9665311019032E+00
(PID.TID 0000.0001) %MON dynstat_theta_mean           =   3.6233436573350E+00
(PID.TID 0000.0001) %MON dynstat_theta_sd             =   4.4237602217407E+00
(PID.TID 0000.0001) %MON dynstat_theta_del2           =   4.8883746449746E-03
(PID.TID 0000.0001) %MON dynstat_salt_max             =   3.7467250956875E+01
(PID.TID 0000.0001) %MON dynstat_salt_min             =   2.9870605999111E+01
(PID.TID 0000.0001) %MON dynstat_salt_mean            =   3.4718004219391E+01
(PID.TID 0000.0001) %MON dynstat_salt_sd              =   2.9647395694088E-01
(PID.TID 0000.0001) %MON dynstat_salt_del2            =   9.9004234368067E-04
(PID.TID 0000.0001) %MON dynstat_sst_max              =   3.0530308518880E+01
(PID.TID 0000.0001) %MON dynstat_sst_min              =  -1.9665311019032E+00
(PID.TID 0000.0001) %MON dynstat_sst_mean             =   1.8992000888411E+01
(PID.TID 0000.0001) %MON dynstat_sst_sd               =   9.0682095027031E+00
(PID.TID 0000.0001) %MON dynstat_sst_del2             =   2.8090574126348E-02
(PID.TID 0000.0001) %MON dynstat_sss_max              =   3.7448727436122E+01
(PID.TID 0000.0001) %MON dynstat_sss_min              =   2.9870605999111E+01
(PID.TID 0000.0001) %MON dynstat_sss_mean             =   3.4839859293655E+01
(PID.TID 0000.0001) %MON dynstat_sss_sd               =   9.8098910289256E-01
(PID.TID 0000.0001) %MON dynstat_sss_del2             =   8.0164508959607E-03
(PID.TID 0000.0001) %MON forcing_qnet_max             =   3.1647996520996E+02
(PID.TID 0000.0001) %MON forcing_qnet_min             =  -1.6834477996826E+02
(PID.TID 0000.0001) %MON forcing_qnet_mean            =  -1.0615158484544E+01
(PID.TID 0000.0001) %MON forcing_qnet_sd              =   5.9847119932196E+01
(PID.TID 0000.0001) %MON forcing_qnet_del2            =   8.8105768488919E-01
(PID.TID 0000.0001) %MON forcing_qsw_max              =   0.0000000000000E+00
(PID.TID 0000.0001) %MON forcing_qsw_min              =   0.0000000000000E+00
(PID.TID 0000.0001) %MON forcing_qsw_mean             =   0.0000000000000E+00
(PID.TID 0000.0001) %MON forcing_qsw_sd               =   0.0000000000000E+00
(PID.TID 0000.0001) %MON forcing_qsw_del2             =   0.0000000000000E+00
(PID.TID 0000.0001) %MON forcing_empmr_max            =   6.9195166929603E-05
(PID.TID 0000.0001) %MON forcing_empmr_min            =  -7.7276723686737E-05
(PID.TID 0000.0001) %MON forcing_empmr_mean           =   7.4706001679403E-07
(PID.TID 0000.0001) %MON forcing_empmr_sd             =   2.6871436583064E-05
(PID.TID 0000.0001) %MON forcing_empmr_del2           =   3.5417501506189E-07
(PID.TID 0000.0001) %MON forcing_fu_max               =   3.2843016088009E-01
(PID.TID 0000.0001) %MON forcing_fu_min               =  -2.9650179296732E-01
(PID.TID 0000.0001) %MON forcing_fu_mean              =   1.9043735458512E-02
(PID.TID 0000.0001) %MON forcing_fu_sd                =   9.5329430846208E-02
(PID.TID 0000.0001) %MON forcing_fu_del2              =   7.1458713394150E-04
(PID.TID 0000.0001) %MON forcing_fv_max               =   1.5295380353928E-01
(PID.TID 0000.0001) %MON forcing_fv_min               =  -1.7738871276379E-01
(PID.TID 0000.0001) %MON forcing_fv_mean              =  -7.3731501905024E-03
(PID.TID 0000.0001) %MON forcing_fv_sd                =   4.1902694266275E-02
(PID.TID 0000.0001) %MON forcing_fv_del2              =   4.6838107518311E-04
(PID.TID 0000.0001) %MON trAdv_CFL_u_max              =   3.6001684323911E-02
(PID.TID 0000.0001) %MON trAdv_CFL_v_max              =   2.6681370842456E-02
(PID.TID 0000.0001) %MON trAdv_CFL_w_max              =   3.0179023091344E-02
(PID.TID 0000.0001) %MON advcfl_uvel_max              =   3.7304736308882E-02
(PID.TID 0000.0001) %MON advcfl_vvel_max              =   2.6730499332304E-02
(PID.TID 0000.0001) %MON advcfl_wvel_max              =   2.5178877070466E-02
(PID.TID 0000.0001) %MON advcfl_W_hf_max              =   3.0214652484559E-02
(PID.TID 0000.0001) %MON pe_b_mean                    =   5.5364313218204E-04
(PID.TID 0000.0001) %MON ke_max                       =   1.2271517818385E-02
(PID.TID 0000.0001) %MON ke_mean                      =   1.0219630955681E-04
(PID.TID 0000.0001) %MON ke_vol                       =   1.3226782436723E+18
(PID.TID 0000.0001) %MON vort_r_min                   =  -3.6196676877962E-07
(PID.TID 0000.0001) %MON vort_r_max                   =   3.8572617918419E-07
(PID.TID 0000.0001) %MON vort_a_mean                  =  -2.5274807014567E-05
(PID.TID 0000.0001) %MON vort_a_sd                    =   7.3604651695605E-05
(PID.TID 0000.0001) %MON vort_p_mean                  =  -3.1845655317047E-05
(PID.TID 0000.0001) %MON vort_p_sd                    =   1.3162512158123E-04
(PID.TID 0000.0001) %MON surfExpan_theta_mean         =   1.3567517889057E-07
(PID.TID 0000.0001) %MON surfExpan_salt_mean          =  -5.9767871773581E-09
(PID.TID 0000.0001) // =======================================================
(PID.TID 0000.0001) // End MONITOR dynamic field statistics
(PID.TID 0000.0001) // =======================================================
 EXTERNAL_FIELDS_LOAD,        61 : iP,iLd,i0,i1=    2    3    2    3 ; Wght=  0.4666666667  0.5333333333
 EXTERNAL_FIELDS_LOAD: (fu0,1),fu,fv= -1.4435E-02 -2.7199E-02 -2.1242E-02 -8.5382E-03
 EXTERNAL_FIELDS_LOAD: SST,SSS,Q,E-P= -3.4628E-01  3.4505E+01  2.2710E+02  8.7524E-06
DEBUG_STATS_RL:          Uvel (THERMODYNAMICS)  min= -1.24787127614414E-01
DEBUG_STATS_RL:          Uvel (THERMODYNAMICS)  max=  1.30714710983122E-01
DEBUG_STATS_RL:          Uvel (THERMODYNAMICS) mean=  5.25296875605416E-03
DEBUG_STATS_RL:          Uvel (THERMODYNAMICS) S.D.=  1.99495650295766E-02
DEBUG_STATS_RL:          Vvel (THERMODYNAMICS)  min= -9.08808949309345E-02
DEBUG_STATS_RL:          Vvel (THERMODYNAMICS)  max=  1.37584693389070E-01
DEBUG_STATS_RL:          Vvel (THERMODYNAMICS) mean=  8.26938448662002E-04
DEBUG_STATS_RL:          Vvel (THERMODYNAMICS) S.D.=  1.35731843093075E-02
DEBUG_STATS_RL:          Wvel (THERMODYNAMICS)  min= -6.03823087920665E-05
DEBUG_STATS_RL:          Wvel (THERMODYNAMICS)  max=  1.04578607939296E-04
DEBUG_STATS_RL:          Wvel (THERMODYNAMICS) mean= -8.18630296591996E-08
DEBUG_STATS_RL:          Wvel (THERMODYNAMICS) S.D.=  9.61322951468615E-06
DEBUG_STATS_RL:         Theta (THERMODYNAMICS)  min= -1.96502554406980E+00
DEBUG_STATS_RL:         Theta (THERMODYNAMICS)  max=  3.05553044071841E+01
DEBUG_STATS_RL:         Theta (THERMODYNAMICS) mean=  3.21959627042892E+00
DEBUG_STATS_RL:         Theta (THERMODYNAMICS) S.D.=  5.87794302854561E+00
DEBUG_STATS_RL:          Salt (THERMODYNAMICS)  min= -2.42861286636753E-17
DEBUG_STATS_RL:          Salt (THERMODYNAMICS)  max=  3.74675003911023E+01
DEBUG_STATS_RL:          Salt (THERMODYNAMICS) mean=  1.88448199425337E+01
DEBUG_STATS_RL:          Salt (THERMODYNAMICS) S.D.=  1.73003525107172E+01
DEBUG_STATS_RL:         GtNm1 (THERMODYNAMICS)  min= -5.40998814950426E-06
DEBUG_STATS_RL:         GtNm1 (THERMODYNAMICS)  max=  2.88925946472727E-06
DEBUG_STATS_RL:         GtNm1 (THERMODYNAMICS) mean=  2.34247479719393E-09
DEBUG_STATS_RL:         GtNm1 (THERMODYNAMICS) S.D.=  1.69089552518064E-07
DEBUG_STATS_RL:         GsNm1 (THERMODYNAMICS)  min= -5.58376362973346E-07
DEBUG_STATS_RL:         GsNm1 (THERMODYNAMICS)  max=  3.91014509293046E-07
DEBUG_STATS_RL:         GsNm1 (THERMODYNAMICS) mean= -4.84829842550540E-10
DEBUG_STATS_RL:         GsNm1 (THERMODYNAMICS) S.D.=  1.67348396391475E-08
DEBUG_STATS_RL:                EtaN (DYNAMICS)  min= -1.89061234965016E+00
DEBUG_STATS_RL:                EtaN (DYNAMICS)  max=  9.56001748862519E-01
DEBUG_STATS_RL:                EtaN (DYNAMICS) mean= -1.90113325533427E-01
DEBUG_STATS_RL:                EtaN (DYNAMICS) S.D.=  7.49094150644391E-01
DEBUG_STATS_RL:                Uvel (DYNAMICS)  min= -1.24787127614414E-01
DEBUG_STATS_RL:                Uvel (DYNAMICS)  max=  1.30714710983122E-01
DEBUG_STATS_RL:                Uvel (DYNAMICS) mean=  5.25296875605416E-03
DEBUG_STATS_RL:                Uvel (DYNAMICS) S.D.=  1.99495650295766E-02
DEBUG_STATS_RL:                Vvel (DYNAMICS)  min= -9.08808949309345E-02
DEBUG_STATS_RL:                Vvel (DYNAMICS)  max=  1.37584693389070E-01
DEBUG_STATS_RL:                Vvel (DYNAMICS) mean=  8.26938448662002E-04
DEBUG_STATS_RL:                Vvel (DYNAMICS) S.D.=  1.35731843093075E-02
DEBUG_STATS_RL:                Wvel (DYNAMICS)  min= -6.03823087920665E-05
DEBUG_STATS_RL:                Wvel (DYNAMICS)  max=  1.04578607939296E-04
DEBUG_STATS_RL:                Wvel (DYNAMICS) mean= -8.18630296591996E-08
DEBUG_STATS_RL:                Wvel (DYNAMICS) S.D.=  9.61322951468615E-06
DEBUG_STATS_RL:               Theta (DYNAMICS)  min= -1.96502554406980E+00
DEBUG_STATS_RL:               Theta (DYNAMICS)  max=  3.05553044071841E+01
DEBUG_STATS_RL:               Theta (DYNAMICS) mean=  3.21959627042892E+00
DEBUG_STATS_RL:               Theta (DYNAMICS) S.D.=  5.87794302854561E+00
DEBUG_STATS_RL:                Salt (DYNAMICS)  min= -2.42861286636753E-17
DEBUG_STATS_RL:                Salt (DYNAMICS)  max=  3.74675003911023E+01
DEBUG_STATS_RL:                Salt (DYNAMICS) mean=  1.88448199425337E+01
DEBUG_STATS_RL:                Salt (DYNAMICS) S.D.=  1.73003525107172E+01
DEBUG_STATS_RL:                  Gu (DYNAMICS)  min= -1.24647195248802E-01
DEBUG_STATS_RL:                  Gu (DYNAMICS)  max=  1.19614611222708E-01
DEBUG_STATS_RL:                  Gu (DYNAMICS) mean=  5.24062807692175E-03
DEBUG_STATS_RL:                  Gu (DYNAMICS) S.D.=  2.02723929694575E-02
DEBUG_STATS_RL:                  Gv (DYNAMICS)  min= -1.04450670984626E-01
DEBUG_STATS_RL:                  Gv (DYNAMICS)  max=  1.36743178006002E-01
DEBUG_STATS_RL:                  Gv (DYNAMICS) mean=  3.27169240078893E-03
DEBUG_STATS_RL:                  Gv (DYNAMICS) S.D.=  1.49058385233666E-02
DEBUG_STATS_RL:               GuNm1 (DYNAMICS)  min= -9.85446244738347E-06
DEBUG_STATS_RL:               GuNm1 (DYNAMICS)  max=  9.25878883833420E-06
DEBUG_STATS_RL:               GuNm1 (DYNAMICS) mean=  1.63311646828864E-09
DEBUG_STATS_RL:               GuNm1 (DYNAMICS) S.D.=  1.19471681047575E-06
DEBUG_STATS_RL:               GvNm1 (DYNAMICS)  min= -9.92225923668796E-06
DEBUG_STATS_RL:               GvNm1 (DYNAMICS)  max=  1.58593662838914E-05
DEBUG_STATS_RL:               GvNm1 (DYNAMICS) mean=  7.37936732669828E-07
DEBUG_STATS_RL:               GvNm1 (DYNAMICS) S.D.=  2.64054592395311E-06
DEBUG_STATS_RL:               GtNm1 (DYNAMICS)  min= -5.40998814950426E-06
DEBUG_STATS_RL:               GtNm1 (DYNAMICS)  max=  2.88925946472727E-06
DEBUG_STATS_RL:               GtNm1 (DYNAMICS) mean=  2.34247479719393E-09
DEBUG_STATS_RL:               GtNm1 (DYNAMICS) S.D.=  1.69089552518064E-07
DEBUG_STATS_RL:               GsNm1 (DYNAMICS)  min= -5.58376362973346E-07
DEBUG_STATS_RL:               GsNm1 (DYNAMICS)  max=  3.91014509293046E-07
DEBUG_STATS_RL:               GsNm1 (DYNAMICS) mean= -4.84829842550540E-10
DEBUG_STATS_RL:               GsNm1 (DYNAMICS) S.D.=  1.67348396391475E-08
DEBUG_STATS_RL:    cg2d_b (SOLVE_FOR_PRESSURE)  min= -2.02991964762273E+04
DEBUG_STATS_RL:    cg2d_b (SOLVE_FOR_PRESSURE)  max=  2.50056303886867E+04
DEBUG_STATS_RL:    cg2d_b (SOLVE_FOR_PRESSURE) mean=  4.39357949220599E+00
DEBUG_STATS_RL:    cg2d_b (SOLVE_FOR_PRESSURE) S.D.=  3.91571695594750E+03
 cg2d: Sum(rhs),rhsMax =   4.06753853686408E-01  1.64243675464668E+00
(PID.TID 0000.0001)  cg2d: iter=     1 ; resid.=  6.51959950028722E-02
(PID.TID 0000.0001)  cg2d: iter=     2 ; resid.=  3.50961785431124E-02
(PID.TID 0000.0001)  cg2d: iter=     3 ; resid.=  2.58495192318791E-02
(PID.TID 0000.0001)  cg2d: iter=     4 ; resid.=  2.23053291681122E-02
(PID.TID 0000.0001)  cg2d: iter=     5 ; resid.=  2.31041913775116E-02
(PID.TID 0000.0001)  cg2d: iter=     6 ; resid.=  2.18186135574284E-02
(PID.TID 0000.0001)  cg2d: iter=     7 ; resid.=  1.86641003499106E-02
(PID.TID 0000.0001)  cg2d: iter=     8 ; resid.=  1.45326531376407E-02
(PID.TID 0000.0001)  cg2d: iter=     9 ; resid.=  1.19444056497170E-02
(PID.TID 0000.0001)  cg2d: iter=    10 ; resid.=  1.01433806259349E-02
(PID.TID 0000.0001)  cg2d: iter=    11 ; resid.=  8.03919641571038E-03
(PID.TID 0000.0001)  cg2d: iter=    12 ; resid.=  6.50356797960570E-03
(PID.TID 0000.0001)  cg2d: iter=    13 ; resid.=  5.03049228634399E-03
(PID.TID 0000.0001)  cg2d: iter=    14 ; resid.=  4.16711675747069E-03
(PID.TID 0000.0001)  cg2d: iter=    15 ; resid.=  3.75437486698381E-03
(PID.TID 0000.0001)  cg2d: iter=    16 ; resid.=  3.10589688497919E-03
(PID.TID 0000.0001)  cg2d: iter=    17 ; resid.=  2.41318515985989E-03
(PID.TID 0000.0001)  cg2d: iter=    18 ; resid.=  2.02478955081420E-03
(PID.TID 0000.0001)  cg2d: iter=    19 ; resid.=  1.75595955525721E-03
(PID.TID 0000.0001)  cg2d: iter=    20 ; resid.=  1.42933206494594E-03
(PID.TID 0000.0001)  cg2d: iter=    21 ; resid.=  1.13459207132120E-03
(PID.TID 0000.0001)  cg2d: iter=    22 ; resid.=  9.06727073724504E-04
(PID.TID 0000.0001)  cg2d: iter=    23 ; resid.=  7.10679151545678E-04
(PID.TID 0000.0001)  cg2d: iter=    24 ; resid.=  6.20390601964773E-04
(PID.TID 0000.0001)  cg2d: iter=    25 ; resid.=  5.58702224108650E-04
(PID.TID 0000.0001)  cg2d: iter=    26 ; resid.=  4.55011031450837E-04
(PID.TID 0000.0001)  cg2d: iter=    27 ; resid.=  3.94865611634103E-04
(PID.TID 0000.0001)  cg2d: iter=    28 ; resid.=  3.59428779596176E-04
(PID.TID 0000.0001)  cg2d: iter=    29 ; resid.=  3.02396825282796E-04
(PID.TID 0000.0001)  cg2d: iter=    30 ; resid.=  2.45045201135761E-04
(PID.TID 0000.0001)  cg2d: iter=    31 ; resid.=  2.22007734753548E-04
(PID.TID 0000.0001)  cg2d: iter=    32 ; resid.=  1.77013223821690E-04
(PID.TID 0000.0001)  cg2d: iter=    33 ; resid.=  1.32704520976183E-04
(PID.TID 0000.0001)  cg2d: iter=    34 ; resid.=  1.03578315692107E-04
(PID.TID 0000.0001)  cg2d: iter=    35 ; resid.=  7.64374798734173E-05
(PID.TID 0000.0001)  cg2d: iter=    36 ; resid.=  5.81910992429866E-05
(PID.TID 0000.0001)  cg2d: iter=    37 ; resid.=  4.37134070218124E-05
(PID.TID 0000.0001)  cg2d: iter=    38 ; resid.=  3.58259986308864E-05
(PID.TID 0000.0001)  cg2d: iter=    39 ; resid.=  3.01145641114789E-05
(PID.TID 0000.0001)  cg2d: iter=    40 ; resid.=  2.63345133445242E-05
(PID.TID 0000.0001)  cg2d: iter=    41 ; resid.=  2.18371448774437E-05
(PID.TID 0000.0001)  cg2d: iter=    42 ; resid.=  1.82823525835125E-05
(PID.TID 0000.0001)  cg2d: iter=    43 ; resid.=  1.62704772292437E-05
(PID.TID 0000.0001)  cg2d: iter=    44 ; resid.=  1.38074721621841E-05
(PID.TID 0000.0001)  cg2d: iter=    45 ; resid.=  1.07159949997450E-05
(PID.TID 0000.0001)  cg2d: iter=    46 ; resid.=  8.62920169452547E-06
(PID.TID 0000.0001)  cg2d: iter=    47 ; resid.=  7.00057788865003E-06
(PID.TID 0000.0001)  cg2d: iter=    48 ; resid.=  5.87694014963076E-06
(PID.TID 0000.0001)  cg2d: iter=    49 ; resid.=  5.12016072709188E-06
(PID.TID 0000.0001)  cg2d: iter=    50 ; resid.=  4.55496975370309E-06
(PID.TID 0000.0001)  cg2d: iter=    51 ; resid.=  4.20123442919522E-06
(PID.TID 0000.0001)  cg2d: iter=    52 ; resid.=  3.67840109752606E-06
(PID.TID 0000.0001)  cg2d: iter=    53 ; resid.=  3.17063050314307E-06
(PID.TID 0000.0001)  cg2d: iter=    54 ; resid.=  2.68826521489794E-06
(PID.TID 0000.0001)  cg2d: iter=    55 ; resid.=  2.12662746536635E-06
(PID.TID 0000.0001)  cg2d: iter=    56 ; resid.=  1.64828172430623E-06
(PID.TID 0000.0001)  cg2d: iter=    57 ; resid.=  1.31655205117653E-06
(PID.TID 0000.0001)  cg2d: iter=    58 ; resid.=  1.06001439623313E-06
(PID.TID 0000.0001)  cg2d: iter=    59 ; resid.=  9.14944592764028E-07
(PID.TID 0000.0001)  cg2d: iter=    60 ; resid.=  7.72978481399061E-07
(PID.TID 0000.0001)  cg2d: iter=    61 ; resid.=  6.90980968031682E-07
(PID.TID 0000.0001)  cg2d: iter=    62 ; resid.=  6.28762184385509E-07
(PID.TID 0000.0001)  cg2d: iter=    63 ; resid.=  5.18187668173256E-07
(PID.TID 0000.0001)  cg2d: iter=    64 ; resid.=  4.27676338921287E-07
(PID.TID 0000.0001)  cg2d: iter=    65 ; resid.=  3.51678808540271E-07
(PID.TID 0000.0001)  cg2d: iter=    66 ; resid.=  2.97469869227457E-07
(PID.TID 0000.0001)  cg2d: iter=    67 ; resid.=  2.29798570197343E-07
(PID.TID 0000.0001)  cg2d: iter=    68 ; resid.=  1.69107470801270E-07
(PID.TID 0000.0001)  cg2d: iter=    69 ; resid.=  1.29519748533096E-07
(PID.TID 0000.0001)  cg2d: iter=    70 ; resid.=  9.98590870111928E-08
(PID.TID 0000.0001)  cg2d: iter=    71 ; resid.=  9.04536779670880E-08
(PID.TID 0000.0001)  cg2d: iter=    72 ; resid.=  8.72453889433775E-08
(PID.TID 0000.0001)  cg2d: iter=    73 ; resid.=  7.90630613448311E-08
(PID.TID 0000.0001)  cg2d: iter=    74 ; resid.=  6.93608898583068E-08
(PID.TID 0000.0001)  cg2d: iter=    75 ; resid.=  5.58839785949431E-08
(PID.TID 0000.0001)  cg2d: iter=    76 ; resid.=  5.01433339422929E-08
(PID.TID 0000.0001)  cg2d: iter=    77 ; resid.=  4.18618173489861E-08
(PID.TID 0000.0001)  cg2d: iter=    78 ; resid.=  3.10340793592271E-08
(PID.TID 0000.0001)  cg2d: iter=    79 ; resid.=  2.17029326582793E-08
(PID.TID 0000.0001)  cg2d: iter=    80 ; resid.=  1.70831912208677E-08
(PID.TID 0000.0001)  cg2d: iter=    81 ; resid.=  1.38311558302770E-08
(PID.TID 0000.0001)  cg2d: iter=    82 ; resid.=  1.11175707139743E-08
(PID.TID 0000.0001)  cg2d: iter=    83 ; resid.=  9.35011252951685E-09
(PID.TID 0000.0001)  cg2d: iter=    84 ; resid.=  8.44698510546391E-09
(PID.TID 0000.0001)  cg2d: iter=    85 ; resid.=  6.49910505993120E-09
(PID.TID 0000.0001)  cg2d: iter=    86 ; resid.=  5.03529824523132E-09
(PID.TID 0000.0001)  cg2d: iter=    87 ; resid.=  3.91104750137800E-09
(PID.TID 0000.0001)  cg2d: iter=    88 ; resid.=  2.93623846570972E-09
(PID.TID 0000.0001)  cg2d: iter=    89 ; resid.=  2.18976982963664E-09
(PID.TID 0000.0001)  cg2d: iter=    90 ; resid.=  1.85392671636363E-09
(PID.TID 0000.0001)  cg2d: iter=    91 ; resid.=  1.59752755187776E-09
(PID.TID 0000.0001)  cg2d: iter=    92 ; resid.=  1.27402977570947E-09
(PID.TID 0000.0001)  cg2d: iter=    93 ; resid.=  9.71059506909551E-10
(PID.TID 0000.0001)  cg2d: iter=    94 ; resid.=  7.90502615695498E-10
(PID.TID 0000.0001)  cg2d: iter=    95 ; resid.=  6.71451325757534E-10
(PID.TID 0000.0001)  cg2d: iter=    96 ; resid.=  6.45885535951084E-10
(PID.TID 0000.0001)  cg2d: iter=    97 ; resid.=  5.12589264164295E-10
(PID.TID 0000.0001)  cg2d: iter=    98 ; resid.=  3.96272082874052E-10
(PID.TID 0000.0001)  cg2d: iter=    99 ; resid.=  2.97476009550841E-10
(PID.TID 0000.0001)  cg2d: iter=   100 ; resid.=  2.34928259357868E-10
(PID.TID 0000.0001)  cg2d: iter=   101 ; resid.=  2.01407595772061E-10
(PID.TID 0000.0001)  cg2d: iter=   102 ; resid.=  1.56119838258527E-10
(PID.TID 0000.0001)  cg2d: iter=   103 ; resid.=  1.19525202402445E-10
(PID.TID 0000.0001)  cg2d: iter=   104 ; resid.=  8.58933210619450E-11
(PID.TID 0000.0001)  cg2d: iter=   105 ; resid.=  6.88254015401806E-11
(PID.TID 0000.0001)  cg2d: iter=   106 ; resid.=  5.78653684788282E-11
(PID.TID 0000.0001)  cg2d: iter=   107 ; resid.=  4.40149385860164E-11
(PID.TID 0000.0001)  cg2d: iter=   108 ; resid.=  3.45344865517876E-11
(PID.TID 0000.0001)  cg2d: iter=   109 ; resid.=  2.77400893884008E-11
(PID.TID 0000.0001)  cg2d: iter=   110 ; resid.=  2.38519047370961E-11
(PID.TID 0000.0001)  cg2d: iter=   111 ; resid.=  1.87273326152715E-11
(PID.TID 0000.0001)  cg2d: iter=   112 ; resid.=  1.41694753410508E-11
(PID.TID 0000.0001)  cg2d: iter=   113 ; resid.=  9.66737312451967E-12
(PID.TID 0000.0001)  cg2d: iter=   114 ; resid.=  6.91235106629473E-12
(PID.TID 0000.0001)  cg2d: iter=   115 ; resid.=  5.22689909524775E-12
(PID.TID 0000.0001)  cg2d: iter=   116 ; resid.=  3.92563012321151E-12
(PID.TID 0000.0001)  cg2d: iter=   117 ; resid.=  3.04616444581880E-12
(PID.TID 0000.0001)  cg2d: iter=   118 ; resid.=  2.20594042767657E-12
(PID.TID 0000.0001)  cg2d: iter=   119 ; resid.=  1.61595637593156E-12
(PID.TID 0000.0001)  cg2d: iter=   120 ; resid.=  1.13497569717807E-12
(PID.TID 0000.0001)  cg2d: iter=   121 ; resid.=  7.79090067658652E-13
(PID.TID 0000.0001)  cg2d: iter=   122 ; resid.=  5.27752186074923E-13
(PID.TID 0000.0001)  cg2d: iter=   123 ; resid.=  3.99714340007976E-13
(PID.TID 0000.0001)  cg2d: iter=   124 ; resid.=  3.32923576496833E-13
(PID.TID 0000.0001)  cg2d: iter=   125 ; resid.=  2.75259047640980E-13
(PID.TID 0000.0001)  cg2d: iter=   126 ; resid.=  2.16257693072649E-13
(PID.TID 0000.0001)  cg2d: iter=   127 ; resid.=  1.75525647674029E-13
(PID.TID 0000.0001)  cg2d: iter=   128 ; resid.=  1.32272887656108E-13
(PID.TID 0000.0001)  cg2d: iter=   129 ; resid.=  9.23873986582971E-14
DEBUG_STATS_RL:    cg2d_x (SOLVE_FOR_PRESSURE)  min= -1.85212108970322E+01
DEBUG_STATS_RL:    cg2d_x (SOLVE_FOR_PRESSURE)  max=  9.45842431724722E+00
DEBUG_STATS_RL:    cg2d_x (SOLVE_FOR_PRESSURE) mean= -1.86932570185157E+00
DEBUG_STATS_RL:    cg2d_x (SOLVE_FOR_PRESSURE) S.D.=  7.36777755539538E+00
(PID.TID 0000.0001)      cg2d_init_res =   2.52609497730499E-01
(PID.TID 0000.0001)      cg2d_iters(min,last) =      -1     129
(PID.TID 0000.0001)      cg2d_last_res =   9.23873986582971E-14
(PID.TID 0000.0001) // =======================================================
(PID.TID 0000.0001) // Begin MONITOR dynamic field statistics
(PID.TID 0000.0001) // =======================================================
(PID.TID 0000.0001) %MON time_tsnumber                =                    62
(PID.TID 0000.0001) %MON time_secondsf                =   5.3568000000000E+06
(PID.TID 0000.0001) %MON dynstat_eta_max              =   9.6416150022913E-01
(PID.TID 0000.0001) %MON dynstat_eta_min              =  -1.8879929558647E+00
(PID.TID 0000.0001) %MON dynstat_eta_mean             =  -4.5841554142453E-03
(PID.TID 0000.0001) %MON dynstat_eta_sd               =   6.5961785651391E-01
(PID.TID 0000.0001) %MON dynstat_eta_del2             =   2.4020069250159E-03
(PID.TID 0000.0001) %MON dynstat_uvel_max             =   1.2396099729559E-01
(PID.TID 0000.0001) %MON dynstat_uvel_min             =  -1.2483589327017E-01
(PID.TID 0000.0001) %MON dynstat_uvel_mean            =   2.2069288151628E-03
(PID.TID 0000.0001) %MON dynstat_uvel_sd              =   1.2323431117958E-02
(PID.TID 0000.0001) %MON dynstat_uvel_del2            =   7.6946464234588E-05
(PID.TID 0000.0001) %MON dynstat_vvel_max             =   1.3687243664385E-01
(PID.TID 0000.0001) %MON dynstat_vvel_min             =  -9.4137312394683E-02
(PID.TID 0000.0001) %MON dynstat_vvel_mean            =   4.4666644297018E-06
(PID.TID 0000.0001) %MON dynstat_vvel_sd              =   8.2244736846136E-03
(PID.TID 0000.0001) %MON dynstat_vvel_del2            =   7.0769134013483E-05
(PID.TID 0000.0001) %MON dynstat_wvel_max             =   1.0507185768255E-04
(PID.TID 0000.0001) %MON dynstat_wvel_min             =  -5.7157747228465E-05
(PID.TID 0000.0001) %MON dynstat_wvel_mean            =  -5.2525553402698E-23
(PID.TID 0000.0001) %MON dynstat_wvel_sd              =   1.0706141593503E-05
(PID.TID 0000.0001) %MON dynstat_wvel_del2            =   1.1173009075012E-07
(PID.TID 0000.0001) %MON dynstat_theta_max            =   3.0555304407184E+01
(PID.TID 0000.0001) %MON dynstat_theta_min            =  -1.9650255440698E+00
(PID.TID 0000.0001) %MON dynstat_theta_mean           =   3.6233993693160E+00
(PID.TID 0000.0001) %MON dynstat_theta_sd             =   4.4239780042893E+00
(PID.TID 0000.0001) %MON dynstat_theta_del2           =   4.8922251197430E-03
(PID.TID 0000.0001) %MON dynstat_salt_max             =   3.7467500391102E+01
(PID.TID 0000.0001) %MON dynstat_salt_min             =   2.9872287978784E+01
(PID.TID 0000.0001) %MON dynstat_salt_mean            =   3.4718005058922E+01
(PID.TID 0000.0001) %MON dynstat_salt_sd              =   2.9648106473523E-01
(PID.TID 0000.0001) %MON dynstat_salt_del2            =   9.9039078409004E-04
(PID.TID 0000.0001) %MON dynstat_sst_max              =   3.0555304407184E+01
(PID.TID 0000.0001) %MON dynstat_sst_min              =  -1.9650255440698E+00
(PID.TID 0000.0001) %MON dynstat_sst_mean             =   1.8996870246366E+01
(PID.TID 0000.0001) %MON dynstat_sst_sd               =   9.0727221379439E+00
(PID.TID 0000.0001) %MON dynstat_sst_del2             =   2.8138302735005E-02
(PID.TID 0000.0001) %MON dynstat_sss_max              =   3.7449399823895E+01
(PID.TID 0000.0001) %MON dynstat_sss_min              =   2.9872287978784E+01
(PID.TID 0000.0001) %MON dynstat_sss_mean             =   3.4839516722208E+01
(PID.TID 0000.0001) %MON dynstat_sss_sd               =   9.8131707589222E-01
(PID.TID 0000.0001) %MON dynstat_sss_del2             =   8.0275144019147E-03
(PID.TID 0000.0001) %MON forcing_qnet_max             =   3.1368181355794E+02
(PID.TID 0000.0001) %MON forcing_qnet_min             =  -1.6804550069173E+02
(PID.TID 0000.0001) %MON forcing_qnet_mean            =  -1.0391818984917E+01
(PID.TID 0000.0001) %MON forcing_qnet_sd              =   5.8698172444596E+01
(PID.TID 0000.0001) %MON forcing_qnet_del2            =   8.7784570715978E-01
(PID.TID 0000.0001) %MON forcing_qsw_max              =   0.0000000000000E+00
(PID.TID 0000.0001) %MON forcing_qsw_min              =   0.0000000000000E+00
(PID.TID 0000.0001) %MON forcing_qsw_mean             =   0.0000000000000E+00
(PID.TID 0000.0001) %MON forcing_qsw_sd               =   0.0000000000000E+00
(PID.TID 0000.0001) %MON forcing_qsw_del2             =   0.0000000000000E+00
(PID.TID 0000.0001) %MON forcing_empmr_max            =   6.9189410586053E-05
(PID.TID 0000.0001) %MON forcing_empmr_min            =  -7.7675903279821E-05
(PID.TID 0000.0001) %MON forcing_empmr_mean           =   7.3397008591968E-07
(PID.TID 0000.0001) %MON forcing_empmr_sd             =   2.6815629393034E-05
(PID.TID 0000.0001) %MON forcing_empmr_del2           =   3.5456126682160E-07
(PID.TID 0000.0001) %MON forcing_fu_max               =   3.3037157654762E-01
(PID.TID 0000.0001) %MON forcing_fu_min               =  -3.0188642243544E-01
(PID.TID 0000.0001) %MON forcing_fu_mean              =   1.9137935047970E-02
(PID.TID 0000.0001) %MON forcing_fu_sd                =   9.5650640697018E-02
(PID.TID 0000.0001) %MON forcing_fu_del2              =   7.1874318032025E-04
(PID.TID 0000.0001) %MON forcing_fv_max               =   1.5187646150589E-01
(PID.TID 0000.0001) %MON forcing_fv_min               =  -1.7590267658234E-01
(PID.TID 0000.0001) %MON forcing_fv_mean              =  -7.3835785404719E-03
(PID.TID 0000.0001) %MON forcing_fv_sd                =   4.1829040773244E-02
(PID.TID 0000.0001) %MON forcing_fv_del2              =   4.6738042004890E-04
(PID.TID 0000.0001) %MON trAdv_CFL_u_max              =   3.7312313167635E-02
(PID.TID 0000.0001) %MON trAdv_CFL_v_max              =   2.6555116187742E-02
(PID.TID 0000.0001) %MON trAdv_CFL_w_max              =   3.0214652484559E-02
(PID.TID 0000.0001) %MON advcfl_uvel_max              =   3.8981031879138E-02
(PID.TID 0000.0001) %MON advcfl_vvel_max              =   2.6592119269933E-02
(PID.TID 0000.0001) %MON advcfl_wvel_max              =   2.5195926673139E-02
(PID.TID 0000.0001) %MON advcfl_W_hf_max              =   3.0235112007767E-02
(PID.TID 0000.0001) %MON pe_b_mean                    =   5.5678430331024E-04
(PID.TID 0000.0001) %MON ke_max                       =   1.2031774036992E-02
(PID.TID 0000.0001) %MON ke_mean                      =   1.0157566670653E-04
(PID.TID 0000.0001) %MON ke_vol                       =   1.3226782436723E+18
(PID.TID 0000.0001) %MON vort_r_min                   =  -3.4862298487039E-07
(PID.TID 0000.0001) %MON vort_r_max                   =   3.8937427398868E-07
(PID.TID 0000.0001) %MON vort_a_mean                  =  -2.5274807018429E-05
(PID.TID 0000.0001) %MON vort_a_sd                    =   7.3604648520775E-05
(PID.TID 0000.0001) %MON vort_p_mean                  =  -3.1845655321914E-05
(PID.TID 0000.0001) %MON vort_p_sd                    =   1.3162512770159E-04
(PID.TID 0000.0001) %MON surfExpan_theta_mean         =   9.7170388908845E-08
(PID.TID 0000.0001) %MON surfExpan_salt_mean          =   3.6088778094845E-09
(PID.TID 0000.0001) // =======================================================
(PID.TID 0000.0001) // End MONITOR dynamic field statistics
(PID.TID 0000.0001) // =======================================================
 EXTERNAL_FIELDS_LOAD,        62 : iP,iLd,i0,i1=    2    3    2    3 ; Wght=  0.4333333333  0.5666666667
 EXTERNAL_FIELDS_LOAD: (fu0,1),fu,fv= -1.4435E-02 -2.7199E-02 -2.1668E-02 -7.9696E-03
 EXTERNAL_FIELDS_LOAD: SST,SSS,Q,E-P= -3.3468E-01  3.4511E+01  2.2627E+02  8.7759E-06
DEBUG_STATS_RL:          Uvel (THERMODYNAMICS)  min= -1.24835893270175E-01
DEBUG_STATS_RL:          Uvel (THERMODYNAMICS)  max=  1.23960997295593E-01
DEBUG_STATS_RL:          Uvel (THERMODYNAMICS) mean=  5.28200647533139E-03
DEBUG_STATS_RL:          Uvel (THERMODYNAMICS) S.D.=  1.99053375639213E-02
DEBUG_STATS_RL:          Vvel (THERMODYNAMICS)  min= -9.41373123946829E-02
DEBUG_STATS_RL:          Vvel (THERMODYNAMICS)  max=  1.36872436643853E-01
DEBUG_STATS_RL:          Vvel (THERMODYNAMICS) mean=  7.35970192003013E-04
DEBUG_STATS_RL:          Vvel (THERMODYNAMICS) S.D.=  1.35465354004555E-02
DEBUG_STATS_RL:          Wvel (THERMODYNAMICS)  min= -5.71577472284648E-05
DEBUG_STATS_RL:          Wvel (THERMODYNAMICS)  max=  1.05071857682552E-04
DEBUG_STATS_RL:          Wvel (THERMODYNAMICS) mean= -9.88355550939557E-08
DEBUG_STATS_RL:          Wvel (THERMODYNAMICS) S.D.=  9.52606001790393E-06
DEBUG_STATS_RL:         Theta (THERMODYNAMICS)  min= -1.96351086108604E+00
DEBUG_STATS_RL:         Theta (THERMODYNAMICS)  max=  3.05808092048492E+01
DEBUG_STATS_RL:         Theta (THERMODYNAMICS) mean=  3.21971195878499E+00
DEBUG_STATS_RL:         Theta (THERMODYNAMICS) S.D.=  5.87840281060549E+00
DEBUG_STATS_RL:          Salt (THERMODYNAMICS)  min= -2.42861286636753E-17
DEBUG_STATS_RL:          Salt (THERMODYNAMICS)  max=  3.74676501063632E+01
DEBUG_STATS_RL:          Salt (THERMODYNAMICS) mean=  1.88448014765372E+01
DEBUG_STATS_RL:          Salt (THERMODYNAMICS) S.D.=  1.73003361242434E+01
DEBUG_STATS_RL:         GtNm1 (THERMODYNAMICS)  min= -5.28066733487439E-06
DEBUG_STATS_RL:         GtNm1 (THERMODYNAMICS)  max=  2.80266892332435E-06
DEBUG_STATS_RL:         GtNm1 (THERMODYNAMICS) mean=  2.61713736806769E-09
DEBUG_STATS_RL:         GtNm1 (THERMODYNAMICS) S.D.=  1.67793256006125E-07
DEBUG_STATS_RL:         GsNm1 (THERMODYNAMICS)  min= -5.41471584925950E-07
DEBUG_STATS_RL:         GsNm1 (THERMODYNAMICS)  max=  3.78635746263512E-07
DEBUG_STATS_RL:         GsNm1 (THERMODYNAMICS) mean= -4.79837449593499E-10
DEBUG_STATS_RL:         GsNm1 (THERMODYNAMICS) S.D.=  1.65757172519819E-08
DEBUG_STATS_RL:                EtaN (DYNAMICS)  min= -1.88799295586473E+00
DEBUG_STATS_RL:                EtaN (DYNAMICS)  max=  9.64161500229130E-01
DEBUG_STATS_RL:                EtaN (DYNAMICS) mean= -1.90553078680079E-01
DEBUG_STATS_RL:                EtaN (DYNAMICS) S.D.=  7.51047661100450E-01
DEBUG_STATS_RL:                Uvel (DYNAMICS)  min= -1.24835893270175E-01
DEBUG_STATS_RL:                Uvel (DYNAMICS)  max=  1.23960997295593E-01
DEBUG_STATS_RL:                Uvel (DYNAMICS) mean=  5.28200647533139E-03
DEBUG_STATS_RL:                Uvel (DYNAMICS) S.D.=  1.99053375639213E-02
DEBUG_STATS_RL:                Vvel (DYNAMICS)  min= -9.41373123946829E-02
DEBUG_STATS_RL:                Vvel (DYNAMICS)  max=  1.36872436643853E-01
DEBUG_STATS_RL:                Vvel (DYNAMICS) mean=  7.35970192003013E-04
DEBUG_STATS_RL:                Vvel (DYNAMICS) S.D.=  1.35465354004555E-02
DEBUG_STATS_RL:                Wvel (DYNAMICS)  min= -5.71577472284648E-05
DEBUG_STATS_RL:                Wvel (DYNAMICS)  max=  1.05071857682552E-04
DEBUG_STATS_RL:                Wvel (DYNAMICS) mean= -9.88355550939557E-08
DEBUG_STATS_RL:                Wvel (DYNAMICS) S.D.=  9.52606001790393E-06
DEBUG_STATS_RL:               Theta (DYNAMICS)  min= -1.96351086108604E+00
DEBUG_STATS_RL:               Theta (DYNAMICS)  max=  3.05808092048492E+01
DEBUG_STATS_RL:               Theta (DYNAMICS) mean=  3.21971195878499E+00
DEBUG_STATS_RL:               Theta (DYNAMICS) S.D.=  5.87840281060549E+00
DEBUG_STATS_RL:                Salt (DYNAMICS)  min= -2.42861286636753E-17
DEBUG_STATS_RL:                Salt (DYNAMICS)  max=  3.74676501063632E+01
DEBUG_STATS_RL:                Salt (DYNAMICS) mean=  1.88448014765372E+01
DEBUG_STATS_RL:                Salt (DYNAMICS) S.D.=  1.73003361242434E+01
DEBUG_STATS_RL:                  Gu (DYNAMICS)  min= -1.24669901806426E-01
DEBUG_STATS_RL:                  Gu (DYNAMICS)  max=  1.18783054497488E-01
DEBUG_STATS_RL:                  Gu (DYNAMICS) mean=  5.28481677549331E-03
DEBUG_STATS_RL:                  Gu (DYNAMICS) S.D.=  2.03042827364364E-02
DEBUG_STATS_RL:                  Gv (DYNAMICS)  min= -1.07130952913753E-01
DEBUG_STATS_RL:                  Gv (DYNAMICS)  max=  1.35240646628637E-01
DEBUG_STATS_RL:                  Gv (DYNAMICS) mean=  3.19458092170114E-03
DEBUG_STATS_RL:                  Gv (DYNAMICS) S.D.=  1.48176641102122E-02
DEBUG_STATS_RL:               GuNm1 (DYNAMICS)  min= -9.87123644905089E-06
DEBUG_STATS_RL:               GuNm1 (DYNAMICS)  max=  9.25777366262240E-06
DEBUG_STATS_RL:               GuNm1 (DYNAMICS) mean=  2.15346155414206E-09
DEBUG_STATS_RL:               GuNm1 (DYNAMICS) S.D.=  1.19581181697642E-06
DEBUG_STATS_RL:               GvNm1 (DYNAMICS)  min= -9.95597247909028E-06
DEBUG_STATS_RL:               GvNm1 (DYNAMICS)  max=  1.58203110997623E-05
DEBUG_STATS_RL:               GvNm1 (DYNAMICS) mean=  7.37274625369282E-07
DEBUG_STATS_RL:               GvNm1 (DYNAMICS) S.D.=  2.64045970095511E-06
DEBUG_STATS_RL:               GtNm1 (DYNAMICS)  min= -5.28066733487439E-06
DEBUG_STATS_RL:               GtNm1 (DYNAMICS)  max=  2.80266892332435E-06
DEBUG_STATS_RL:               GtNm1 (DYNAMICS) mean=  2.61713736806769E-09
DEBUG_STATS_RL:               GtNm1 (DYNAMICS) S.D.=  1.67793256006125E-07
DEBUG_STATS_RL:               GsNm1 (DYNAMICS)  min= -5.41471584925950E-07
DEBUG_STATS_RL:               GsNm1 (DYNAMICS)  max=  3.78635746263512E-07
DEBUG_STATS_RL:               GsNm1 (DYNAMICS) mean= -4.79837449593499E-10
DEBUG_STATS_RL:               GsNm1 (DYNAMICS) S.D.=  1.65757172519819E-08
DEBUG_STATS_RL:    cg2d_b (SOLVE_FOR_PRESSURE)  min= -2.01440844761373E+04
DEBUG_STATS_RL:    cg2d_b (SOLVE_FOR_PRESSURE)  max=  2.48319843569436E+04
DEBUG_STATS_RL:    cg2d_b (SOLVE_FOR_PRESSURE) mean=  4.45125555663804E+00
DEBUG_STATS_RL:    cg2d_b (SOLVE_FOR_PRESSURE) S.D.=  3.92235034387198E+03
 cg2d: Sum(rhs),rhsMax =   4.14975157260606E-01  1.63103121835745E+00
(PID.TID 0000.0001)  cg2d: iter=     1 ; resid.=  6.49166621143283E-02
(PID.TID 0000.0001)  cg2d: iter=     2 ; resid.=  3.41613373414485E-02
(PID.TID 0000.0001)  cg2d: iter=     3 ; resid.=  2.36648864639262E-02
(PID.TID 0000.0001)  cg2d: iter=     4 ; resid.=  1.95833526570182E-02
(PID.TID 0000.0001)  cg2d: iter=     5 ; resid.=  1.99758544965115E-02
(PID.TID 0000.0001)  cg2d: iter=     6 ; resid.=  1.89979713138240E-02
(PID.TID 0000.0001)  cg2d: iter=     7 ; resid.=  1.62123592493956E-02
(PID.TID 0000.0001)  cg2d: iter=     8 ; resid.=  1.24101635352158E-02
(PID.TID 0000.0001)  cg2d: iter=     9 ; resid.=  1.01666574212287E-02
(PID.TID 0000.0001)  cg2d: iter=    10 ; resid.=  8.86092988536040E-03
(PID.TID 0000.0001)  cg2d: iter=    11 ; resid.=  7.20278907545924E-03
(PID.TID 0000.0001)  cg2d: iter=    12 ; resid.=  5.82397877125790E-03
(PID.TID 0000.0001)  cg2d: iter=    13 ; resid.=  4.46796398954178E-03
(PID.TID 0000.0001)  cg2d: iter=    14 ; resid.=  3.60197732391922E-03
(PID.TID 0000.0001)  cg2d: iter=    15 ; resid.=  3.22625084731505E-03
(PID.TID 0000.0001)  cg2d: iter=    16 ; resid.=  2.67733182239394E-03
(PID.TID 0000.0001)  cg2d: iter=    17 ; resid.=  2.03947093975075E-03
(PID.TID 0000.0001)  cg2d: iter=    18 ; resid.=  1.61447442624970E-03
(PID.TID 0000.0001)  cg2d: iter=    19 ; resid.=  1.36759883940953E-03
(PID.TID 0000.0001)  cg2d: iter=    20 ; resid.=  1.14290035405720E-03
(PID.TID 0000.0001)  cg2d: iter=    21 ; resid.=  9.26361218452336E-04
(PID.TID 0000.0001)  cg2d: iter=    22 ; resid.=  7.30554493798236E-04
(PID.TID 0000.0001)  cg2d: iter=    23 ; resid.=  5.44437403738590E-04
(PID.TID 0000.0001)  cg2d: iter=    24 ; resid.=  4.46683374349878E-04
(PID.TID 0000.0001)  cg2d: iter=    25 ; resid.=  3.98351403600154E-04
(PID.TID 0000.0001)  cg2d: iter=    26 ; resid.=  3.22462529964296E-04
(PID.TID 0000.0001)  cg2d: iter=    27 ; resid.=  2.73208063320968E-04
(PID.TID 0000.0001)  cg2d: iter=    28 ; resid.=  2.45154357142579E-04
(PID.TID 0000.0001)  cg2d: iter=    29 ; resid.=  2.17382708987109E-04
(PID.TID 0000.0001)  cg2d: iter=    30 ; resid.=  1.86100713333644E-04
(PID.TID 0000.0001)  cg2d: iter=    31 ; resid.=  1.78453548667787E-04
(PID.TID 0000.0001)  cg2d: iter=    32 ; resid.=  1.53431857118274E-04
(PID.TID 0000.0001)  cg2d: iter=    33 ; resid.=  1.19499720587258E-04
(PID.TID 0000.0001)  cg2d: iter=    34 ; resid.=  9.44732682420849E-05
(PID.TID 0000.0001)  cg2d: iter=    35 ; resid.=  7.06136331552959E-05
(PID.TID 0000.0001)  cg2d: iter=    36 ; resid.=  5.38772140709848E-05
(PID.TID 0000.0001)  cg2d: iter=    37 ; resid.=  3.93367966906365E-05
(PID.TID 0000.0001)  cg2d: iter=    38 ; resid.=  3.01600561262595E-05
(PID.TID 0000.0001)  cg2d: iter=    39 ; resid.=  2.40119676091965E-05
(PID.TID 0000.0001)  cg2d: iter=    40 ; resid.=  2.00022001661394E-05
(PID.TID 0000.0001)  cg2d: iter=    41 ; resid.=  1.57840271422404E-05
(PID.TID 0000.0001)  cg2d: iter=    42 ; resid.=  1.26132077643408E-05
(PID.TID 0000.0001)  cg2d: iter=    43 ; resid.=  1.10515176228244E-05
(PID.TID 0000.0001)  cg2d: iter=    44 ; resid.=  9.49527687710519E-06
(PID.TID 0000.0001)  cg2d: iter=    45 ; resid.=  7.32671932558915E-06
(PID.TID 0000.0001)  cg2d: iter=    46 ; resid.=  5.69656835842744E-06
(PID.TID 0000.0001)  cg2d: iter=    47 ; resid.=  4.31618683780076E-06
(PID.TID 0000.0001)  cg2d: iter=    48 ; resid.=  3.35118911417399E-06
(PID.TID 0000.0001)  cg2d: iter=    49 ; resid.=  2.67944021064257E-06
(PID.TID 0000.0001)  cg2d: iter=    50 ; resid.=  2.24190096821963E-06
(PID.TID 0000.0001)  cg2d: iter=    51 ; resid.=  1.98787491450274E-06
(PID.TID 0000.0001)  cg2d: iter=    52 ; resid.=  1.82539836651229E-06
(PID.TID 0000.0001)  cg2d: iter=    53 ; resid.=  1.68449669352110E-06
(PID.TID 0000.0001)  cg2d: iter=    54 ; resid.=  1.57582233306893E-06
(PID.TID 0000.0001)  cg2d: iter=    55 ; resid.=  1.37310105644006E-06
(PID.TID 0000.0001)  cg2d: iter=    56 ; resid.=  1.10942523444738E-06
(PID.TID 0000.0001)  cg2d: iter=    57 ; resid.=  8.78366269240226E-07
(PID.TID 0000.0001)  cg2d: iter=    58 ; resid.=  6.78621281407593E-07
(PID.TID 0000.0001)  cg2d: iter=    59 ; resid.=  5.46352767944789E-07
(PID.TID 0000.0001)  cg2d: iter=    60 ; resid.=  4.20779203635372E-07
(PID.TID 0000.0001)  cg2d: iter=    61 ; resid.=  3.44492649700621E-07
(PID.TID 0000.0001)  cg2d: iter=    62 ; resid.=  3.02312648340465E-07
(PID.TID 0000.0001)  cg2d: iter=    63 ; resid.=  2.56523459046311E-07
(PID.TID 0000.0001)  cg2d: iter=    64 ; resid.=  2.17364004899967E-07
(PID.TID 0000.0001)  cg2d: iter=    65 ; resid.=  1.87984594848333E-07
(PID.TID 0000.0001)  cg2d: iter=    66 ; resid.=  1.75456350284232E-07
(PID.TID 0000.0001)  cg2d: iter=    67 ; resid.=  1.53327558948140E-07
(PID.TID 0000.0001)  cg2d: iter=    68 ; resid.=  1.23504620784703E-07
(PID.TID 0000.0001)  cg2d: iter=    69 ; resid.=  9.53907083120855E-08
(PID.TID 0000.0001)  cg2d: iter=    70 ; resid.=  7.24652075630401E-08
(PID.TID 0000.0001)  cg2d: iter=    71 ; resid.=  6.06782629487875E-08
(PID.TID 0000.0001)  cg2d: iter=    72 ; resid.=  5.60538434706016E-08
(PID.TID 0000.0001)  cg2d: iter=    73 ; resid.=  4.88443345156662E-08
(PID.TID 0000.0001)  cg2d: iter=    74 ; resid.=  4.09156188101273E-08
(PID.TID 0000.0001)  cg2d: iter=    75 ; resid.=  3.17704939439062E-08
(PID.TID 0000.0001)  cg2d: iter=    76 ; resid.=  2.81837731247758E-08
(PID.TID 0000.0001)  cg2d: iter=    77 ; resid.=  2.55108447971120E-08
(PID.TID 0000.0001)  cg2d: iter=    78 ; resid.=  2.08655754378670E-08
(PID.TID 0000.0001)  cg2d: iter=    79 ; resid.=  1.54697014157463E-08
(PID.TID 0000.0001)  cg2d: iter=    80 ; resid.=  1.24831434614859E-08
(PID.TID 0000.0001)  cg2d: iter=    81 ; resid.=  1.05230819461355E-08
(PID.TID 0000.0001)  cg2d: iter=    82 ; resid.=  8.88775827543370E-09
(PID.TID 0000.0001)  cg2d: iter=    83 ; resid.=  7.46255156852437E-09
(PID.TID 0000.0001)  cg2d: iter=    84 ; resid.=  6.59461791180718E-09
(PID.TID 0000.0001)  cg2d: iter=    85 ; resid.=  5.03633074366241E-09
(PID.TID 0000.0001)  cg2d: iter=    86 ; resid.=  3.88981167921631E-09
(PID.TID 0000.0001)  cg2d: iter=    87 ; resid.=  3.22418148971899E-09
(PID.TID 0000.0001)  cg2d: iter=    88 ; resid.=  2.60844652159729E-09
(PID.TID 0000.0001)  cg2d: iter=    89 ; resid.=  2.03998867940126E-09
(PID.TID 0000.0001)  cg2d: iter=    90 ; resid.=  1.78582139913278E-09
(PID.TID 0000.0001)  cg2d: iter=    91 ; resid.=  1.57222620559785E-09
(PID.TID 0000.0001)  cg2d: iter=    92 ; resid.=  1.27401911338204E-09
(PID.TID 0000.0001)  cg2d: iter=    93 ; resid.=  9.68306285816514E-10
(PID.TID 0000.0001)  cg2d: iter=    94 ; resid.=  7.39490562161825E-10
(PID.TID 0000.0001)  cg2d: iter=    95 ; resid.=  5.51961820392939E-10
(PID.TID 0000.0001)  cg2d: iter=    96 ; resid.=  4.79250079758799E-10
(PID.TID 0000.0001)  cg2d: iter=    97 ; resid.=  3.67576480827736E-10
(PID.TID 0000.0001)  cg2d: iter=    98 ; resid.=  2.81601153323554E-10
(PID.TID 0000.0001)  cg2d: iter=    99 ; resid.=  2.15205140575985E-10
(PID.TID 0000.0001)  cg2d: iter=   100 ; resid.=  1.71761372451845E-10
(PID.TID 0000.0001)  cg2d: iter=   101 ; resid.=  1.53112827874811E-10
(PID.TID 0000.0001)  cg2d: iter=   102 ; resid.=  1.28616808685705E-10
(PID.TID 0000.0001)  cg2d: iter=   103 ; resid.=  1.05983953174801E-10
(PID.TID 0000.0001)  cg2d: iter=   104 ; resid.=  7.84853407061011E-11
(PID.TID 0000.0001)  cg2d: iter=   105 ; resid.=  6.33327736825820E-11
(PID.TID 0000.0001)  cg2d: iter=   106 ; resid.=  5.36909596604611E-11
(PID.TID 0000.0001)  cg2d: iter=   107 ; resid.=  4.07802211671766E-11
(PID.TID 0000.0001)  cg2d: iter=   108 ; resid.=  3.15182859306159E-11
(PID.TID 0000.0001)  cg2d: iter=   109 ; resid.=  2.46822688192755E-11
(PID.TID 0000.0001)  cg2d: iter=   110 ; resid.=  2.05815429659697E-11
(PID.TID 0000.0001)  cg2d: iter=   111 ; resid.=  1.63443793090024E-11
(PID.TID 0000.0001)  cg2d: iter=   112 ; resid.=  1.28552295937421E-11
(PID.TID 0000.0001)  cg2d: iter=   113 ; resid.=  9.19762893048751E-12
(PID.TID 0000.0001)  cg2d: iter=   114 ; resid.=  6.98406662789686E-12
(PID.TID 0000.0001)  cg2d: iter=   115 ; resid.=  5.62358512853901E-12
(PID.TID 0000.0001)  cg2d: iter=   116 ; resid.=  4.54158435527117E-12
(PID.TID 0000.0001)  cg2d: iter=   117 ; resid.=  3.73695552166716E-12
(PID.TID 0000.0001)  cg2d: iter=   118 ; resid.=  2.78270829353276E-12
(PID.TID 0000.0001)  cg2d: iter=   119 ; resid.=  2.05035035270312E-12
(PID.TID 0000.0001)  cg2d: iter=   120 ; resid.=  1.45626825398197E-12
(PID.TID 0000.0001)  cg2d: iter=   121 ; resid.=  1.01106253986646E-12
(PID.TID 0000.0001)  cg2d: iter=   122 ; resid.=  7.01326605217260E-13
(PID.TID 0000.0001)  cg2d: iter=   123 ; resid.=  5.49180545251047E-13
(PID.TID 0000.0001)  cg2d: iter=   124 ; resid.=  4.48019451975247E-13
(PID.TID 0000.0001)  cg2d: iter=   125 ; resid.=  3.36794250844550E-13
(PID.TID 0000.0001)  cg2d: iter=   126 ; resid.=  2.38022214994691E-13
(PID.TID 0000.0001)  cg2d: iter=   127 ; resid.=  1.77576591952339E-13
(PID.TID 0000.0001)  cg2d: iter=   128 ; resid.=  1.29187866202768E-13
(PID.TID 0000.0001)  cg2d: iter=   129 ; resid.=  9.15144886623835E-14
DEBUG_STATS_RL:    cg2d_x (SOLVE_FOR_PRESSURE)  min= -1.85514965178784E+01
DEBUG_STATS_RL:    cg2d_x (SOLVE_FOR_PRESSURE)  max=  9.52158179005232E+00
DEBUG_STATS_RL:    cg2d_x (SOLVE_FOR_PRESSURE) mean= -1.87211585599088E+00
DEBUG_STATS_RL:    cg2d_x (SOLVE_FOR_PRESSURE) S.D.=  7.37753478955053E+00
(PID.TID 0000.0001)      cg2d_init_res =   2.51001980438378E-01
(PID.TID 0000.0001)      cg2d_iters(min,last) =      -1     129
(PID.TID 0000.0001)      cg2d_last_res =   9.15144886623835E-14
(PID.TID 0000.0001) // =======================================================
(PID.TID 0000.0001) // Begin MONITOR dynamic field statistics
(PID.TID 0000.0001) // =======================================================
(PID.TID 0000.0001) %MON time_tsnumber                =                    63
(PID.TID 0000.0001) %MON time_secondsf                =   5.4432000000000E+06
(PID.TID 0000.0001) %MON dynstat_eta_max              =   9.7059957085131E-01
(PID.TID 0000.0001) %MON dynstat_eta_min              =  -1.8910801751150E+00
(PID.TID 0000.0001) %MON dynstat_eta_mean             =  -4.6443332358838E-03
(PID.TID 0000.0001) %MON dynstat_eta_sd               =   6.6041507948419E-01
(PID.TID 0000.0001) %MON dynstat_eta_del2             =   2.4076370874414E-03
(PID.TID 0000.0001) %MON dynstat_uvel_max             =   1.1762720595788E-01
(PID.TID 0000.0001) %MON dynstat_uvel_min             =  -1.2480121860633E-01
(PID.TID 0000.0001) %MON dynstat_uvel_mean            =   2.1982323465751E-03
(PID.TID 0000.0001) %MON dynstat_uvel_sd              =   1.2315603167784E-02
(PID.TID 0000.0001) %MON dynstat_uvel_del2            =   7.7043993104686E-05
(PID.TID 0000.0001) %MON dynstat_vvel_max             =   1.3655932383663E-01
(PID.TID 0000.0001) %MON dynstat_vvel_min             =  -9.6764771532014E-02
(PID.TID 0000.0001) %MON dynstat_vvel_mean            =   9.5119858336678E-06
(PID.TID 0000.0001) %MON dynstat_vvel_sd              =   8.2156266997315E-03
(PID.TID 0000.0001) %MON dynstat_vvel_del2            =   7.0920999355364E-05
(PID.TID 0000.0001) %MON dynstat_wvel_max             =   1.0697325301940E-04
(PID.TID 0000.0001) %MON dynstat_wvel_min             =  -6.1257402041661E-05
(PID.TID 0000.0001) %MON dynstat_wvel_mean            =   4.4835950006080E-23
(PID.TID 0000.0001) %MON dynstat_wvel_sd              =   1.0595371790910E-05
(PID.TID 0000.0001) %MON dynstat_wvel_del2            =   1.1011616890856E-07
(PID.TID 0000.0001) %MON dynstat_theta_max            =   3.0580809204849E+01
(PID.TID 0000.0001) %MON dynstat_theta_min            =  -1.9635108610860E+00
(PID.TID 0000.0001) %MON dynstat_theta_mean           =   3.6234546732720E+00
(PID.TID 0000.0001) %MON dynstat_theta_sd             =   4.4241970412354E+00
(PID.TID 0000.0001) %MON dynstat_theta_del2           =   4.8926223109703E-03
(PID.TID 0000.0001) %MON dynstat_salt_max             =   3.7467650106363E+01
(PID.TID 0000.0001) %MON dynstat_salt_min             =   2.9874038905654E+01
(PID.TID 0000.0001) %MON dynstat_salt_mean            =   3.4718005663529E+01
(PID.TID 0000.0001) %MON dynstat_salt_sd              =   2.9648778264610E-01
(PID.TID 0000.0001) %MON dynstat_salt_del2            =   9.8996543330669E-04
(PID.TID 0000.0001) %MON dynstat_sst_max              =   3.0580809204849E+01
(PID.TID 0000.0001) %MON dynstat_sst_min              =  -1.9635108610860E+00
(PID.TID 0000.0001) %MON dynstat_sst_mean             =   1.9001641019899E+01
(PID.TID 0000.0001) %MON dynstat_sst_sd               =   9.0772537960346E+00
(PID.TID 0000.0001) %MON dynstat_sst_del2             =   2.8157156581639E-02
(PID.TID 0000.0001) %MON dynstat_sss_max              =   3.7450048496654E+01
(PID.TID 0000.0001) %MON dynstat_sss_min              =   2.9874038905654E+01
(PID.TID 0000.0001) %MON dynstat_sss_mean             =   3.4839170453268E+01
(PID.TID 0000.0001) %MON dynstat_sss_sd               =   9.8161940331048E-01
(PID.TID 0000.0001) %MON dynstat_sss_del2             =   8.0311667449985E-03
(PID.TID 0000.0001) %MON forcing_qnet_max             =   3.1088366190592E+02
(PID.TID 0000.0001) %MON forcing_qnet_min             =  -1.6774622141520E+02
(PID.TID 0000.0001) %MON forcing_qnet_mean            =  -1.0168479485291E+01
(PID.TID 0000.0001) %MON forcing_qnet_sd              =   5.7577799379717E+01
(PID.TID 0000.0001) %MON forcing_qnet_del2            =   8.7481271655306E-01
(PID.TID 0000.0001) %MON forcing_qsw_max              =   0.0000000000000E+00
(PID.TID 0000.0001) %MON forcing_qsw_min              =   0.0000000000000E+00
(PID.TID 0000.0001) %MON forcing_qsw_mean             =   0.0000000000000E+00
(PID.TID 0000.0001) %MON forcing_qsw_sd               =   0.0000000000000E+00
(PID.TID 0000.0001) %MON forcing_qsw_del2             =   0.0000000000000E+00
(PID.TID 0000.0001) %MON forcing_empmr_max            =   6.9183654242503E-05
(PID.TID 0000.0001) %MON forcing_empmr_min            =  -7.8075082872905E-05
(PID.TID 0000.0001) %MON forcing_empmr_mean           =   7.2088015504532E-07
(PID.TID 0000.0001) %MON forcing_empmr_sd             =   2.6762189976849E-05
(PID.TID 0000.0001) %MON forcing_empmr_del2           =   3.5501110525875E-07
(PID.TID 0000.0001) %MON forcing_fu_max               =   3.3231299221516E-01
(PID.TID 0000.0001) %MON forcing_fu_min               =  -3.0727105190357E-01
(PID.TID 0000.0001) %MON forcing_fu_mean              =   1.9232134637429E-02
(PID.TID 0000.0001) %MON forcing_fu_sd                =   9.5991792760700E-02
(PID.TID 0000.0001) %MON forcing_fu_del2              =   7.2366523657091E-04
(PID.TID 0000.0001) %MON forcing_fv_max               =   1.5079911947250E-01
(PID.TID 0000.0001) %MON forcing_fv_min               =  -1.7441664040089E-01
(PID.TID 0000.0001) %MON forcing_fv_mean              =  -7.3940068904414E-03
(PID.TID 0000.0001) %MON forcing_fv_sd                =   4.1773346779471E-02
(PID.TID 0000.0001) %MON forcing_fv_del2              =   4.6691190936856E-04
(PID.TID 0000.0001) %MON trAdv_CFL_u_max              =   3.8988949205510E-02
(PID.TID 0000.0001) %MON trAdv_CFL_v_max              =   2.6417644059420E-02
(PID.TID 0000.0001) %MON trAdv_CFL_w_max              =   3.0235112007767E-02
(PID.TID 0000.0001) %MON advcfl_uvel_max              =   4.0568393557376E-02
(PID.TID 0000.0001) %MON advcfl_vvel_max              =   2.6531286473215E-02
(PID.TID 0000.0001) %MON advcfl_wvel_max              =   2.5478973835829E-02
(PID.TID 0000.0001) %MON advcfl_W_hf_max              =   3.0574768602995E-02
(PID.TID 0000.0001) %MON pe_b_mean                    =   5.5813163615162E-04
(PID.TID 0000.0001) %MON ke_max                       =   1.1766909811027E-02
(PID.TID 0000.0001) %MON ke_mean                      =   1.0140537189050E-04
(PID.TID 0000.0001) %MON ke_vol                       =   1.3226782436723E+18
(PID.TID 0000.0001) %MON vort_r_min                   =  -3.3524676929714E-07
(PID.TID 0000.0001) %MON vort_r_max                   =   3.9277890028643E-07
(PID.TID 0000.0001) %MON vort_a_mean                  =  -2.5274807022483E-05
(PID.TID 0000.0001) %MON vort_a_sd                    =   7.3604645750141E-05
(PID.TID 0000.0001) %MON vort_p_mean                  =  -3.1845655327021E-05
(PID.TID 0000.0001) %MON vort_p_sd                    =   1.3162512818735E-04
(PID.TID 0000.0001) %MON surfExpan_theta_mean         =   6.0349970804766E-08
(PID.TID 0000.0001) %MON surfExpan_salt_mean          =   1.3482451500865E-08
(PID.TID 0000.0001) // =======================================================
(PID.TID 0000.0001) // End MONITOR dynamic field statistics
(PID.TID 0000.0001) // =======================================================
 EXTERNAL_FIELDS_LOAD,        63 : iP,iLd,i0,i1=    2    3    2    3 ; Wght=  0.4000000000  0.6000000000
 EXTERNAL_FIELDS_LOAD: (fu0,1),fu,fv= -1.4435E-02 -2.7199E-02 -2.2093E-02 -7.4011E-03
 EXTERNAL_FIELDS_LOAD: SST,SSS,Q,E-P= -3.2309E-01  3.4516E+01  2.2543E+02  8.7993E-06
DEBUG_STATS_RL:          Uvel (THERMODYNAMICS)  min= -1.24801218606334E-01
DEBUG_STATS_RL:          Uvel (THERMODYNAMICS)  max=  1.17627205957876E-01
DEBUG_STATS_RL:          Uvel (THERMODYNAMICS) mean=  5.32703213865567E-03
DEBUG_STATS_RL:          Uvel (THERMODYNAMICS) S.D.=  1.99378550966845E-02
DEBUG_STATS_RL:          Vvel (THERMODYNAMICS)  min= -9.67647715320136E-02
DEBUG_STATS_RL:          Vvel (THERMODYNAMICS)  max=  1.36559323836626E-01
DEBUG_STATS_RL:          Vvel (THERMODYNAMICS) mean=  6.59429905431213E-04
DEBUG_STATS_RL:          Vvel (THERMODYNAMICS) S.D.=  1.35164609501349E-02
DEBUG_STATS_RL:          Wvel (THERMODYNAMICS)  min= -6.12574020416612E-05
DEBUG_STATS_RL:          Wvel (THERMODYNAMICS)  max=  1.06973253019400E-04
DEBUG_STATS_RL:          Wvel (THERMODYNAMICS) mean= -1.12160207779544E-07
DEBUG_STATS_RL:          Wvel (THERMODYNAMICS) S.D.=  9.42558073666065E-06
DEBUG_STATS_RL:         Theta (THERMODYNAMICS)  min= -1.96198475332416E+00
DEBUG_STATS_RL:         Theta (THERMODYNAMICS)  max=  3.06067879113534E+01
DEBUG_STATS_RL:         Theta (THERMODYNAMICS) mean=  3.21984781901077E+00
DEBUG_STATS_RL:         Theta (THERMODYNAMICS) S.D.=  5.87886203012631E+00
DEBUG_STATS_RL:          Salt (THERMODYNAMICS)  min= -2.42861286636753E-17
DEBUG_STATS_RL:          Salt (THERMODYNAMICS)  max=  3.74677040744712E+01
DEBUG_STATS_RL:          Salt (THERMODYNAMICS) mean=  1.88447849207577E+01
DEBUG_STATS_RL:          Salt (THERMODYNAMICS) S.D.=  1.73003214021682E+01
DEBUG_STATS_RL:         GtNm1 (THERMODYNAMICS)  min= -5.28623670802036E-06
DEBUG_STATS_RL:         GtNm1 (THERMODYNAMICS)  max=  2.81381937021588E-06
DEBUG_STATS_RL:         GtNm1 (THERMODYNAMICS) mean=  2.84895911347785E-09
DEBUG_STATS_RL:         GtNm1 (THERMODYNAMICS) S.D.=  1.65689215513153E-07
DEBUG_STATS_RL:         GsNm1 (THERMODYNAMICS)  min= -5.59853413010063E-07
DEBUG_STATS_RL:         GsNm1 (THERMODYNAMICS)  max=  3.91234425869201E-07
DEBUG_STATS_RL:         GsNm1 (THERMODYNAMICS) mean= -4.67426837129040E-10
DEBUG_STATS_RL:         GsNm1 (THERMODYNAMICS) S.D.=  1.62227879454660E-08
DEBUG_STATS_RL:                EtaN (DYNAMICS)  min= -1.89108017511504E+00
DEBUG_STATS_RL:                EtaN (DYNAMICS)  max=  9.70599570851312E-01
DEBUG_STATS_RL:                EtaN (DYNAMICS) mean= -1.90837498062272E-01
DEBUG_STATS_RL:                EtaN (DYNAMICS) S.D.=  7.52042282319121E-01
DEBUG_STATS_RL:                Uvel (DYNAMICS)  min= -1.24801218606334E-01
DEBUG_STATS_RL:                Uvel (DYNAMICS)  max=  1.17627205957876E-01
DEBUG_STATS_RL:                Uvel (DYNAMICS) mean=  5.32703213865567E-03
DEBUG_STATS_RL:                Uvel (DYNAMICS) S.D.=  1.99378550966845E-02
DEBUG_STATS_RL:                Vvel (DYNAMICS)  min= -9.67647715320136E-02
DEBUG_STATS_RL:                Vvel (DYNAMICS)  max=  1.36559323836626E-01
DEBUG_STATS_RL:                Vvel (DYNAMICS) mean=  6.59429905431213E-04
DEBUG_STATS_RL:                Vvel (DYNAMICS) S.D.=  1.35164609501349E-02
DEBUG_STATS_RL:                Wvel (DYNAMICS)  min= -6.12574020416612E-05
DEBUG_STATS_RL:                Wvel (DYNAMICS)  max=  1.06973253019400E-04
DEBUG_STATS_RL:                Wvel (DYNAMICS) mean= -1.12160207779544E-07
DEBUG_STATS_RL:                Wvel (DYNAMICS) S.D.=  9.42558073666065E-06
DEBUG_STATS_RL:               Theta (DYNAMICS)  min= -1.96198475332416E+00
DEBUG_STATS_RL:               Theta (DYNAMICS)  max=  3.06067879113534E+01
DEBUG_STATS_RL:               Theta (DYNAMICS) mean=  3.21984781901077E+00
DEBUG_STATS_RL:               Theta (DYNAMICS) S.D.=  5.87886203012631E+00
DEBUG_STATS_RL:                Salt (DYNAMICS)  min= -2.42861286636753E-17
DEBUG_STATS_RL:                Salt (DYNAMICS)  max=  3.74677040744712E+01
DEBUG_STATS_RL:                Salt (DYNAMICS) mean=  1.88447849207577E+01
DEBUG_STATS_RL:                Salt (DYNAMICS) S.D.=  1.73003214021682E+01
DEBUG_STATS_RL:                  Gu (DYNAMICS)  min= -1.24610046999341E-01
DEBUG_STATS_RL:                  Gu (DYNAMICS)  max=  1.23452883922314E-01
DEBUG_STATS_RL:                  Gu (DYNAMICS) mean=  5.34207564755059E-03
DEBUG_STATS_RL:                  Gu (DYNAMICS) S.D.=  2.04052087466581E-02
DEBUG_STATS_RL:                  Gv (DYNAMICS)  min= -1.08744964201620E-01
DEBUG_STATS_RL:                  Gv (DYNAMICS)  max=  1.37475867260347E-01
DEBUG_STATS_RL:                  Gv (DYNAMICS) mean=  3.13450808629346E-03
DEBUG_STATS_RL:                  Gv (DYNAMICS) S.D.=  1.47338906821852E-02
DEBUG_STATS_RL:               GuNm1 (DYNAMICS)  min= -9.88784302709186E-06
DEBUG_STATS_RL:               GuNm1 (DYNAMICS)  max=  9.25342799110001E-06
DEBUG_STATS_RL:               GuNm1 (DYNAMICS) mean=  2.63819614224239E-09
DEBUG_STATS_RL:               GuNm1 (DYNAMICS) S.D.=  1.19692340542276E-06
DEBUG_STATS_RL:               GvNm1 (DYNAMICS)  min= -9.98457460055348E-06
DEBUG_STATS_RL:               GvNm1 (DYNAMICS)  max=  1.57860779827067E-05
DEBUG_STATS_RL:               GvNm1 (DYNAMICS) mean=  7.36692725252560E-07
DEBUG_STATS_RL:               GvNm1 (DYNAMICS) S.D.=  2.63985889100560E-06
DEBUG_STATS_RL:               GtNm1 (DYNAMICS)  min= -5.28623670802036E-06
DEBUG_STATS_RL:               GtNm1 (DYNAMICS)  max=  2.81381937021588E-06
DEBUG_STATS_RL:               GtNm1 (DYNAMICS) mean=  2.84895911347785E-09
DEBUG_STATS_RL:               GtNm1 (DYNAMICS) S.D.=  1.65689215513153E-07
DEBUG_STATS_RL:               GsNm1 (DYNAMICS)  min= -5.59853413010063E-07
DEBUG_STATS_RL:               GsNm1 (DYNAMICS)  max=  3.91234425869201E-07
DEBUG_STATS_RL:               GsNm1 (DYNAMICS) mean= -4.67426837129040E-10
DEBUG_STATS_RL:               GsNm1 (DYNAMICS) S.D.=  1.62227879454660E-08
DEBUG_STATS_RL:    cg2d_b (SOLVE_FOR_PRESSURE)  min= -1.99738852343123E+04
DEBUG_STATS_RL:    cg2d_b (SOLVE_FOR_PRESSURE)  max=  2.46645406458206E+04
DEBUG_STATS_RL:    cg2d_b (SOLVE_FOR_PRESSURE) mean=  4.50788432396816E+00
DEBUG_STATS_RL:    cg2d_b (SOLVE_FOR_PRESSURE) S.D.=  3.92675814296531E+03
 cg2d: Sum(rhs),rhsMax =   4.23107503190216E-01  1.62003306709279E+00
(PID.TID 0000.0001)  cg2d: iter=     1 ; resid.=  6.51792438115340E-02
(PID.TID 0000.0001)  cg2d: iter=     2 ; resid.=  3.40675886055699E-02
(PID.TID 0000.0001)  cg2d: iter=     3 ; resid.=  2.33920525033071E-02
(PID.TID 0000.0001)  cg2d: iter=     4 ; resid.=  1.96839247547078E-02
(PID.TID 0000.0001)  cg2d: iter=     5 ; resid.=  2.03641776898034E-02
(PID.TID 0000.0001)  cg2d: iter=     6 ; resid.=  1.94291365532909E-02
(PID.TID 0000.0001)  cg2d: iter=     7 ; resid.=  1.63636158427208E-02
(PID.TID 0000.0001)  cg2d: iter=     8 ; resid.=  1.21926798461138E-02
(PID.TID 0000.0001)  cg2d: iter=     9 ; resid.=  9.82855965695147E-03
(PID.TID 0000.0001)  cg2d: iter=    10 ; resid.=  8.56418655887797E-03
(PID.TID 0000.0001)  cg2d: iter=    11 ; resid.=  6.99974245354698E-03
(PID.TID 0000.0001)  cg2d: iter=    12 ; resid.=  5.57841167731368E-03
(PID.TID 0000.0001)  cg2d: iter=    13 ; resid.=  4.20902512931169E-03
(PID.TID 0000.0001)  cg2d: iter=    14 ; resid.=  3.28317955103292E-03
(PID.TID 0000.0001)  cg2d: iter=    15 ; resid.=  2.88247345170642E-03
(PID.TID 0000.0001)  cg2d: iter=    16 ; resid.=  2.38340942621129E-03
(PID.TID 0000.0001)  cg2d: iter=    17 ; resid.=  1.79820860252031E-03
(PID.TID 0000.0001)  cg2d: iter=    18 ; resid.=  1.37172933504443E-03
(PID.TID 0000.0001)  cg2d: iter=    19 ; resid.=  1.12604664881403E-03
(PID.TID 0000.0001)  cg2d: iter=    20 ; resid.=  9.57253665345815E-04
(PID.TID 0000.0001)  cg2d: iter=    21 ; resid.=  7.92380540588394E-04
(PID.TID 0000.0001)  cg2d: iter=    22 ; resid.=  6.26883744111753E-04
(PID.TID 0000.0001)  cg2d: iter=    23 ; resid.=  4.51668026675060E-04
(PID.TID 0000.0001)  cg2d: iter=    24 ; resid.=  3.46255423499262E-04
(PID.TID 0000.0001)  cg2d: iter=    25 ; resid.=  2.96648715513129E-04
(PID.TID 0000.0001)  cg2d: iter=    26 ; resid.=  2.31145100896680E-04
(PID.TID 0000.0001)  cg2d: iter=    27 ; resid.=  1.83228366856211E-04
(PID.TID 0000.0001)  cg2d: iter=    28 ; resid.=  1.47832482091543E-04
(PID.TID 0000.0001)  cg2d: iter=    29 ; resid.=  1.20394700904107E-04
(PID.TID 0000.0001)  cg2d: iter=    30 ; resid.=  9.69502665895667E-05
(PID.TID 0000.0001)  cg2d: iter=    31 ; resid.=  9.16300073897567E-05
(PID.TID 0000.0001)  cg2d: iter=    32 ; resid.=  8.41424343971824E-05
(PID.TID 0000.0001)  cg2d: iter=    33 ; resid.=  7.00490414439321E-05
(PID.TID 0000.0001)  cg2d: iter=    34 ; resid.=  5.85450518721006E-05
(PID.TID 0000.0001)  cg2d: iter=    35 ; resid.=  4.65102000141595E-05
(PID.TID 0000.0001)  cg2d: iter=    36 ; resid.=  3.83514006125484E-05
(PID.TID 0000.0001)  cg2d: iter=    37 ; resid.=  3.04039791964661E-05
(PID.TID 0000.0001)  cg2d: iter=    38 ; resid.=  2.49325050379985E-05
(PID.TID 0000.0001)  cg2d: iter=    39 ; resid.=  2.16480049759721E-05
(PID.TID 0000.0001)  cg2d: iter=    40 ; resid.=  1.97725485944924E-05
(PID.TID 0000.0001)  cg2d: iter=    41 ; resid.=  1.68306902272602E-05
(PID.TID 0000.0001)  cg2d: iter=    42 ; resid.=  1.44729582571920E-05
(PID.TID 0000.0001)  cg2d: iter=    43 ; resid.=  1.36839719967660E-05
(PID.TID 0000.0001)  cg2d: iter=    44 ; resid.=  1.22760784347585E-05
(PID.TID 0000.0001)  cg2d: iter=    45 ; resid.=  9.68686470970542E-06
(PID.TID 0000.0001)  cg2d: iter=    46 ; resid.=  7.50499771630911E-06
(PID.TID 0000.0001)  cg2d: iter=    47 ; resid.=  5.57545456997303E-06
(PID.TID 0000.0001)  cg2d: iter=    48 ; resid.=  4.24849118147100E-06
(PID.TID 0000.0001)  cg2d: iter=    49 ; resid.=  3.35745758127158E-06
(PID.TID 0000.0001)  cg2d: iter=    50 ; resid.=  2.72319981505160E-06
(PID.TID 0000.0001)  cg2d: iter=    51 ; resid.=  2.26384442860929E-06
(PID.TID 0000.0001)  cg2d: iter=    52 ; resid.=  1.90192172618933E-06
(PID.TID 0000.0001)  cg2d: iter=    53 ; resid.=  1.62708437863243E-06
(PID.TID 0000.0001)  cg2d: iter=    54 ; resid.=  1.44205624312199E-06
(PID.TID 0000.0001)  cg2d: iter=    55 ; resid.=  1.22553517062768E-06
(PID.TID 0000.0001)  cg2d: iter=    56 ; resid.=  9.74765396155557E-07
(PID.TID 0000.0001)  cg2d: iter=    57 ; resid.=  7.72142769906913E-07
(PID.TID 0000.0001)  cg2d: iter=    58 ; resid.=  6.34177935442796E-07
(PID.TID 0000.0001)  cg2d: iter=    59 ; resid.=  5.56656409740392E-07
(PID.TID 0000.0001)  cg2d: iter=    60 ; resid.=  4.73458328014407E-07
(PID.TID 0000.0001)  cg2d: iter=    61 ; resid.=  4.23208702017065E-07
(PID.TID 0000.0001)  cg2d: iter=    62 ; resid.=  3.89995629334538E-07
(PID.TID 0000.0001)  cg2d: iter=    63 ; resid.=  3.44133820847799E-07
(PID.TID 0000.0001)  cg2d: iter=    64 ; resid.=  2.93001179513105E-07
(PID.TID 0000.0001)  cg2d: iter=    65 ; resid.=  2.48680264654747E-07
(PID.TID 0000.0001)  cg2d: iter=    66 ; resid.=  2.16495115089182E-07
(PID.TID 0000.0001)  cg2d: iter=    67 ; resid.=  1.76537270619165E-07
(PID.TID 0000.0001)  cg2d: iter=    68 ; resid.=  1.37569786348029E-07
(PID.TID 0000.0001)  cg2d: iter=    69 ; resid.=  1.03474372585216E-07
(PID.TID 0000.0001)  cg2d: iter=    70 ; resid.=  7.76662367662922E-08
(PID.TID 0000.0001)  cg2d: iter=    71 ; resid.=  6.15721355305291E-08
(PID.TID 0000.0001)  cg2d: iter=    72 ; resid.=  5.21426301633636E-08
(PID.TID 0000.0001)  cg2d: iter=    73 ; resid.=  4.10702290864430E-08
(PID.TID 0000.0001)  cg2d: iter=    74 ; resid.=  3.08445913053841E-08
(PID.TID 0000.0001)  cg2d: iter=    75 ; resid.=  2.11310788687483E-08
(PID.TID 0000.0001)  cg2d: iter=    76 ; resid.=  1.59853445698651E-08
(PID.TID 0000.0001)  cg2d: iter=    77 ; resid.=  1.30925004753618E-08
(PID.TID 0000.0001)  cg2d: iter=    78 ; resid.=  1.02858233102924E-08
(PID.TID 0000.0001)  cg2d: iter=    79 ; resid.=  7.40582446713665E-09
(PID.TID 0000.0001)  cg2d: iter=    80 ; resid.=  5.65408613712265E-09
(PID.TID 0000.0001)  cg2d: iter=    81 ; resid.=  4.53332080591316E-09
(PID.TID 0000.0001)  cg2d: iter=    82 ; resid.=  3.75754496203230E-09
(PID.TID 0000.0001)  cg2d: iter=    83 ; resid.=  3.08271103170765E-09
(PID.TID 0000.0001)  cg2d: iter=    84 ; resid.=  2.72656794549970E-09
(PID.TID 0000.0001)  cg2d: iter=    85 ; resid.=  2.11840499581250E-09
(PID.TID 0000.0001)  cg2d: iter=    86 ; resid.=  1.54090139396320E-09
(PID.TID 0000.0001)  cg2d: iter=    87 ; resid.=  1.22364556580054E-09
(PID.TID 0000.0001)  cg2d: iter=    88 ; resid.=  9.65341962802174E-10
(PID.TID 0000.0001)  cg2d: iter=    89 ; resid.=  7.14103077303055E-10
(PID.TID 0000.0001)  cg2d: iter=    90 ; resid.=  5.88301620292761E-10
(PID.TID 0000.0001)  cg2d: iter=    91 ; resid.=  5.40620702183018E-10
(PID.TID 0000.0001)  cg2d: iter=    92 ; resid.=  4.94056304091952E-10
(PID.TID 0000.0001)  cg2d: iter=    93 ; resid.=  4.36700369722939E-10
(PID.TID 0000.0001)  cg2d: iter=    94 ; resid.=  3.80201476004374E-10
(PID.TID 0000.0001)  cg2d: iter=    95 ; resid.=  2.95930440100431E-10
(PID.TID 0000.0001)  cg2d: iter=    96 ; resid.=  2.54523003918415E-10
(PID.TID 0000.0001)  cg2d: iter=    97 ; resid.=  2.00813228485551E-10
(PID.TID 0000.0001)  cg2d: iter=    98 ; resid.=  1.53868103938121E-10
(PID.TID 0000.0001)  cg2d: iter=    99 ; resid.=  1.15600143676434E-10
(PID.TID 0000.0001)  cg2d: iter=   100 ; resid.=  8.57432798492964E-11
(PID.TID 0000.0001)  cg2d: iter=   101 ; resid.=  7.09588285242729E-11
(PID.TID 0000.0001)  cg2d: iter=   102 ; resid.=  5.82740700839071E-11
(PID.TID 0000.0001)  cg2d: iter=   103 ; resid.=  4.96774980259922E-11
(PID.TID 0000.0001)  cg2d: iter=   104 ; resid.=  3.75405499513184E-11
(PID.TID 0000.0001)  cg2d: iter=   105 ; resid.=  3.05379551275112E-11
(PID.TID 0000.0001)  cg2d: iter=   106 ; resid.=  2.75407729406835E-11
(PID.TID 0000.0001)  cg2d: iter=   107 ; resid.=  2.28776020077781E-11
(PID.TID 0000.0001)  cg2d: iter=   108 ; resid.=  1.88383196757820E-11
(PID.TID 0000.0001)  cg2d: iter=   109 ; resid.=  1.58580925653977E-11
(PID.TID 0000.0001)  cg2d: iter=   110 ; resid.=  1.39394403886094E-11
(PID.TID 0000.0001)  cg2d: iter=   111 ; resid.=  1.16465099817486E-11
(PID.TID 0000.0001)  cg2d: iter=   112 ; resid.=  9.58008812208336E-12
(PID.TID 0000.0001)  cg2d: iter=   113 ; resid.=  6.95812451046800E-12
(PID.TID 0000.0001)  cg2d: iter=   114 ; resid.=  5.32724055775580E-12
(PID.TID 0000.0001)  cg2d: iter=   115 ; resid.=  4.34592443080530E-12
(PID.TID 0000.0001)  cg2d: iter=   116 ; resid.=  3.60741779999867E-12
(PID.TID 0000.0001)  cg2d: iter=   117 ; resid.=  3.11915558422983E-12
(PID.TID 0000.0001)  cg2d: iter=   118 ; resid.=  2.47149067750219E-12
(PID.TID 0000.0001)  cg2d: iter=   119 ; resid.=  1.91839520549230E-12
(PID.TID 0000.0001)  cg2d: iter=   120 ; resid.=  1.43791743485587E-12
(PID.TID 0000.0001)  cg2d: iter=   121 ; resid.=  1.03851938014181E-12
(PID.TID 0000.0001)  cg2d: iter=   122 ; resid.=  7.41796050399671E-13
(PID.TID 0000.0001)  cg2d: iter=   123 ; resid.=  5.78836258740751E-13
(PID.TID 0000.0001)  cg2d: iter=   124 ; resid.=  4.71959108445025E-13
(PID.TID 0000.0001)  cg2d: iter=   125 ; resid.=  3.48902850841761E-13
(PID.TID 0000.0001)  cg2d: iter=   126 ; resid.=  2.42828930553249E-13
(PID.TID 0000.0001)  cg2d: iter=   127 ; resid.=  1.79868270484924E-13
(PID.TID 0000.0001)  cg2d: iter=   128 ; resid.=  1.30508370062645E-13
(PID.TID 0000.0001)  cg2d: iter=   129 ; resid.=  9.07201075182595E-14
DEBUG_STATS_RL:    cg2d_x (SOLVE_FOR_PRESSURE)  min= -1.85716086604320E+01
DEBUG_STATS_RL:    cg2d_x (SOLVE_FOR_PRESSURE)  max=  9.56662091942266E+00
DEBUG_STATS_RL:    cg2d_x (SOLVE_FOR_PRESSURE) mean= -1.87345278442873E+00
DEBUG_STATS_RL:    cg2d_x (SOLVE_FOR_PRESSURE) S.D.=  7.37804731021115E+00
(PID.TID 0000.0001)      cg2d_init_res =   2.50114128870618E-01
(PID.TID 0000.0001)      cg2d_iters(min,last) =      -1     129
(PID.TID 0000.0001)      cg2d_last_res =   9.07201075182595E-14
(PID.TID 0000.0001) // =======================================================
(PID.TID 0000.0001) // Begin MONITOR dynamic field statistics
(PID.TID 0000.0001) // =======================================================
(PID.TID 0000.0001) %MON time_tsnumber                =                    64
(PID.TID 0000.0001) %MON time_secondsf                =   5.5296000000000E+06
(PID.TID 0000.0001) %MON dynstat_eta_max              =   9.7519071553757E-01
(PID.TID 0000.0001) %MON dynstat_eta_min              =  -1.8931303425517E+00
(PID.TID 0000.0001) %MON dynstat_eta_mean             =  -4.7034183328588E-03
(PID.TID 0000.0001) %MON dynstat_eta_sd               =   6.6016152517105E-01
(PID.TID 0000.0001) %MON dynstat_eta_del2             =   2.4122473875736E-03
(PID.TID 0000.0001) %MON dynstat_uvel_max             =   1.2192632315624E-01
(PID.TID 0000.0001) %MON dynstat_uvel_min             =  -1.2468430119480E-01
(PID.TID 0000.0001) %MON dynstat_uvel_mean            =   2.1929968203632E-03
(PID.TID 0000.0001) %MON dynstat_uvel_sd              =   1.2346048213915E-02
(PID.TID 0000.0001) %MON dynstat_uvel_del2            =   7.7292039473895E-05
(PID.TID 0000.0001) %MON dynstat_vvel_max             =   1.3867027463532E-01
(PID.TID 0000.0001) %MON dynstat_vvel_min             =  -9.8329651788435E-02
(PID.TID 0000.0001) %MON dynstat_vvel_mean            =   1.4364286388805E-05
(PID.TID 0000.0001) %MON dynstat_vvel_sd              =   8.2046306640938E-03
(PID.TID 0000.0001) %MON dynstat_vvel_del2            =   7.1082224299940E-05
(PID.TID 0000.0001) %MON dynstat_wvel_max             =   1.1020798610403E-04
(PID.TID 0000.0001) %MON dynstat_wvel_min             =  -6.5411772238186E-05
(PID.TID 0000.0001) %MON dynstat_wvel_mean            =   1.3369932348661E-22
(PID.TID 0000.0001) %MON dynstat_wvel_sd              =   1.0480924244697E-05
(PID.TID 0000.0001) %MON dynstat_wvel_del2            =   1.0852965765394E-07
(PID.TID 0000.0001) %MON dynstat_theta_max            =   3.0606787911353E+01
(PID.TID 0000.0001) %MON dynstat_theta_min            =  -1.9619847533242E+00
(PID.TID 0000.0001) %MON dynstat_theta_mean           =   3.6235095082614E+00
(PID.TID 0000.0001) %MON dynstat_theta_sd             =   4.4244161822444E+00
(PID.TID 0000.0001) %MON dynstat_theta_del2           =   4.8929978392893E-03
(PID.TID 0000.0001) %MON dynstat_salt_max             =   3.7467704074471E+01
(PID.TID 0000.0001) %MON dynstat_salt_min             =   2.9875875356664E+01
(PID.TID 0000.0001) %MON dynstat_salt_mean            =   3.4718006031664E+01
(PID.TID 0000.0001) %MON dynstat_salt_sd              =   2.9649380795935E-01
(PID.TID 0000.0001) %MON dynstat_salt_del2            =   9.8965600193203E-04
(PID.TID 0000.0001) %MON dynstat_sst_max              =   3.0606787911353E+01
(PID.TID 0000.0001) %MON dynstat_sst_min              =  -1.9619847533242E+00
(PID.TID 0000.0001) %MON dynstat_sst_mean             =   1.9006518343515E+01
(PID.TID 0000.0001) %MON dynstat_sst_sd               =   9.0814123733228E+00
(PID.TID 0000.0001) %MON dynstat_sst_del2             =   2.8175973833405E-02
(PID.TID 0000.0001) %MON dynstat_sss_max              =   3.7450676763873E+01
(PID.TID 0000.0001) %MON dynstat_sss_min              =   2.9875875356664E+01
(PID.TID 0000.0001) %MON dynstat_sss_mean             =   3.4838866271323E+01
(PID.TID 0000.0001) %MON dynstat_sss_sd               =   9.8188368062942E-01
(PID.TID 0000.0001) %MON dynstat_sss_del2             =   8.0353755598041E-03
(PID.TID 0000.0001) %MON forcing_qnet_max             =   3.0808551025391E+02
(PID.TID 0000.0001) %MON forcing_qnet_min             =  -1.6744694213867E+02
(PID.TID 0000.0001) %MON forcing_qnet_mean            =  -9.9451399856641E+00
(PID.TID 0000.0001) %MON forcing_qnet_sd              =   5.6487700992384E+01
(PID.TID 0000.0001) %MON forcing_qnet_del2            =   8.7196058081462E-01
(PID.TID 0000.0001) %MON forcing_qsw_max              =   0.0000000000000E+00
(PID.TID 0000.0001) %MON forcing_qsw_min              =   0.0000000000000E+00
(PID.TID 0000.0001) %MON forcing_qsw_mean             =   0.0000000000000E+00
(PID.TID 0000.0001) %MON forcing_qsw_sd               =   0.0000000000000E+00
(PID.TID 0000.0001) %MON forcing_qsw_del2             =   0.0000000000000E+00
(PID.TID 0000.0001) %MON forcing_empmr_max            =   6.9177897898953E-05
(PID.TID 0000.0001) %MON forcing_empmr_min            =  -7.8474262465988E-05
(PID.TID 0000.0001) %MON forcing_empmr_mean           =   7.0779022417096E-07
(PID.TID 0000.0001) %MON forcing_empmr_sd             =   2.6711132545716E-05
(PID.TID 0000.0001) %MON forcing_empmr_del2           =   3.5552428900822E-07
(PID.TID 0000.0001) %MON forcing_fu_max               =   3.3425440788269E-01
(PID.TID 0000.0001) %MON forcing_fu_min               =  -3.1265568137169E-01
(PID.TID 0000.0001) %MON forcing_fu_mean              =   1.9326334226887E-02
(PID.TID 0000.0001) %MON forcing_fu_sd                =   9.6352675211700E-02
(PID.TID 0000.0001) %MON forcing_fu_del2              =   7.2933779422692E-04
(PID.TID 0000.0001) %MON forcing_fv_max               =   1.4972177743912E-01
(PID.TID 0000.0001) %MON forcing_fv_min               =  -1.7535814046860E-01
(PID.TID 0000.0001) %MON forcing_fv_mean              =  -7.4044352404109E-03
(PID.TID 0000.0001) %MON forcing_fv_sd                =   4.1735684182933E-02
(PID.TID 0000.0001) %MON forcing_fv_del2              =   4.6697714482083E-04
(PID.TID 0000.0001) %MON trAdv_CFL_u_max              =   4.0576633288258E-02
(PID.TID 0000.0001) %MON trAdv_CFL_v_max              =   2.6423170963940E-02
(PID.TID 0000.0001) %MON trAdv_CFL_w_max              =   3.0204106752469E-02
(PID.TID 0000.0001) %MON advcfl_uvel_max              =   4.1997095367113E-02
(PID.TID 0000.0001) %MON advcfl_vvel_max              =   2.6941410357821E-02
(PID.TID 0000.0001) %MON advcfl_wvel_max              =   2.5903587719584E-02
(PID.TID 0000.0001) %MON advcfl_W_hf_max              =   3.1189333369319E-02
(PID.TID 0000.0001) %MON pe_b_mean                    =   5.5770387745818E-04
(PID.TID 0000.0001) %MON ke_max                       =   1.1478895162897E-02
(PID.TID 0000.0001) %MON ke_mean                      =   1.0165502994516E-04
(PID.TID 0000.0001) %MON ke_vol                       =   1.3226782436723E+18
(PID.TID 0000.0001) %MON vort_r_min                   =  -3.2195831173112E-07
(PID.TID 0000.0001) %MON vort_r_max                   =   3.9589425017199E-07
(PID.TID 0000.0001) %MON vort_a_mean                  =  -2.5274807026615E-05
(PID.TID 0000.0001) %MON vort_a_sd                    =   7.3604643546610E-05
(PID.TID 0000.0001) %MON vort_p_mean                  =  -3.1845655332227E-05
(PID.TID 0000.0001) %MON vort_p_sd                    =   1.3162512363325E-04
(PID.TID 0000.0001) %MON surfExpan_theta_mean         =   2.6500391267926E-08
(PID.TID 0000.0001) %MON surfExpan_salt_mean          =   2.3297609403611E-08
(PID.TID 0000.0001) // =======================================================
(PID.TID 0000.0001) // End MONITOR dynamic field statistics
(PID.TID 0000.0001) // =======================================================
 EXTERNAL_FIELDS_LOAD,        64 : iP,iLd,i0,i1=    2    3    2    3 ; Wght=  0.3666666667  0.6333333333
 EXTERNAL_FIELDS_LOAD: (fu0,1),fu,fv= -1.4435E-02 -2.7199E-02 -2.2519E-02 -6.8325E-03
 EXTERNAL_FIELDS_LOAD: SST,SSS,Q,E-P= -3.1149E-01  3.4521E+01  2.2459E+02  8.8228E-06
DEBUG_STATS_RL:          Uvel (THERMODYNAMICS)  min= -1.24684301194801E-01
DEBUG_STATS_RL:          Uvel (THERMODYNAMICS)  max=  1.21926323156239E-01
DEBUG_STATS_RL:          Uvel (THERMODYNAMICS) mean=  5.38605963125353E-03
DEBUG_STATS_RL:          Uvel (THERMODYNAMICS) S.D.=  2.00387745889782E-02
DEBUG_STATS_RL:          Vvel (THERMODYNAMICS)  min= -9.83296517884353E-02
DEBUG_STATS_RL:          Vvel (THERMODYNAMICS)  max=  1.38670274635321E-01
DEBUG_STATS_RL:          Vvel (THERMODYNAMICS) mean=  5.99558297294324E-04
DEBUG_STATS_RL:          Vvel (THERMODYNAMICS) S.D.=  1.34827587688181E-02
DEBUG_STATS_RL:          Wvel (THERMODYNAMICS)  min= -6.54117722381864E-05
DEBUG_STATS_RL:          Wvel (THERMODYNAMICS)  max=  1.10207986104032E-04
DEBUG_STATS_RL:          Wvel (THERMODYNAMICS) mean= -1.21365518916347E-07
DEBUG_STATS_RL:          Wvel (THERMODYNAMICS) S.D.=  9.31910349498910E-06
DEBUG_STATS_RL:         Theta (THERMODYNAMICS)  min= -1.96044574807540E+00
DEBUG_STATS_RL:         Theta (THERMODYNAMICS)  max=  3.06331946876717E+01
DEBUG_STATS_RL:         Theta (THERMODYNAMICS) mean=  3.21998330703842E+00
DEBUG_STATS_RL:         Theta (THERMODYNAMICS) S.D.=  5.87933581326688E+00
DEBUG_STATS_RL:          Salt (THERMODYNAMICS)  min= -2.42861286636753E-17
DEBUG_STATS_RL:          Salt (THERMODYNAMICS)  max=  3.74676674228981E+01
DEBUG_STATS_RL:          Salt (THERMODYNAMICS) mean=  1.88447688338752E+01
DEBUG_STATS_RL:          Salt (THERMODYNAMICS) S.D.=  1.73003072025052E+01
DEBUG_STATS_RL:         GtNm1 (THERMODYNAMICS)  min= -5.19039028179131E-06
DEBUG_STATS_RL:         GtNm1 (THERMODYNAMICS)  max=  2.74850219998163E-06
DEBUG_STATS_RL:         GtNm1 (THERMODYNAMICS) mean=  3.11077169868362E-09
DEBUG_STATS_RL:         GtNm1 (THERMODYNAMICS) S.D.=  1.64801602651673E-07
DEBUG_STATS_RL:         GsNm1 (THERMODYNAMICS)  min= -5.40705274358135E-07
DEBUG_STATS_RL:         GsNm1 (THERMODYNAMICS)  max=  3.76987434316493E-07
DEBUG_STATS_RL:         GsNm1 (THERMODYNAMICS) mean= -4.41326876979244E-10
DEBUG_STATS_RL:         GsNm1 (THERMODYNAMICS) S.D.=  1.60747243093661E-08
DEBUG_STATS_RL:                EtaN (DYNAMICS)  min= -1.89313034255174E+00
DEBUG_STATS_RL:                EtaN (DYNAMICS)  max=  9.75190715537567E-01
DEBUG_STATS_RL:                EtaN (DYNAMICS) mean= -1.90973780267965E-01
DEBUG_STATS_RL:                EtaN (DYNAMICS) S.D.=  7.52094527034781E-01
DEBUG_STATS_RL:                Uvel (DYNAMICS)  min= -1.24684301194801E-01
DEBUG_STATS_RL:                Uvel (DYNAMICS)  max=  1.21926323156239E-01
DEBUG_STATS_RL:                Uvel (DYNAMICS) mean=  5.38605963125353E-03
DEBUG_STATS_RL:                Uvel (DYNAMICS) S.D.=  2.00387745889782E-02
DEBUG_STATS_RL:                Vvel (DYNAMICS)  min= -9.83296517884353E-02
DEBUG_STATS_RL:                Vvel (DYNAMICS)  max=  1.38670274635321E-01
DEBUG_STATS_RL:                Vvel (DYNAMICS) mean=  5.99558297294324E-04
DEBUG_STATS_RL:                Vvel (DYNAMICS) S.D.=  1.34827587688181E-02
DEBUG_STATS_RL:                Wvel (DYNAMICS)  min= -6.54117722381864E-05
DEBUG_STATS_RL:                Wvel (DYNAMICS)  max=  1.10207986104032E-04
DEBUG_STATS_RL:                Wvel (DYNAMICS) mean= -1.21365518916347E-07
DEBUG_STATS_RL:                Wvel (DYNAMICS) S.D.=  9.31910349498910E-06
DEBUG_STATS_RL:               Theta (DYNAMICS)  min= -1.96044574807540E+00
DEBUG_STATS_RL:               Theta (DYNAMICS)  max=  3.06331946876717E+01
DEBUG_STATS_RL:               Theta (DYNAMICS) mean=  3.21998330703842E+00
DEBUG_STATS_RL:               Theta (DYNAMICS) S.D.=  5.87933581326688E+00
DEBUG_STATS_RL:                Salt (DYNAMICS)  min= -2.42861286636753E-17
DEBUG_STATS_RL:                Salt (DYNAMICS)  max=  3.74676674228981E+01
DEBUG_STATS_RL:                Salt (DYNAMICS) mean=  1.88447688338752E+01
DEBUG_STATS_RL:                Salt (DYNAMICS) S.D.=  1.73003072025052E+01
DEBUG_STATS_RL:                  Gu (DYNAMICS)  min= -1.24468910318260E-01
DEBUG_STATS_RL:                  Gu (DYNAMICS)  max=  1.27616344861310E-01
DEBUG_STATS_RL:                  Gu (DYNAMICS) mean=  5.40996039431977E-03
DEBUG_STATS_RL:                  Gu (DYNAMICS) S.D.=  2.05634371558548E-02
DEBUG_STATS_RL:                  Gv (DYNAMICS)  min= -1.09265762352153E-01
DEBUG_STATS_RL:                  Gv (DYNAMICS)  max=  1.39482519549275E-01
DEBUG_STATS_RL:                  Gv (DYNAMICS) mean=  3.09294513947203E-03
DEBUG_STATS_RL:                  Gv (DYNAMICS) S.D.=  1.46576049023268E-02
DEBUG_STATS_RL:               GuNm1 (DYNAMICS)  min= -9.90441833631043E-06
DEBUG_STATS_RL:               GuNm1 (DYNAMICS)  max=  9.24691923313366E-06
DEBUG_STATS_RL:               GuNm1 (DYNAMICS) mean=  3.09581309891289E-09
DEBUG_STATS_RL:               GuNm1 (DYNAMICS) S.D.=  1.19807886450143E-06
DEBUG_STATS_RL:               GvNm1 (DYNAMICS)  min= -1.00072948128158E-05
DEBUG_STATS_RL:               GvNm1 (DYNAMICS)  max=  1.57566532694278E-05
DEBUG_STATS_RL:               GvNm1 (DYNAMICS) mean=  7.36200864838994E-07
DEBUG_STATS_RL:               GvNm1 (DYNAMICS) S.D.=  2.63881470436464E-06
DEBUG_STATS_RL:               GtNm1 (DYNAMICS)  min= -5.19039028179131E-06
DEBUG_STATS_RL:               GtNm1 (DYNAMICS)  max=  2.74850219998163E-06
DEBUG_STATS_RL:               GtNm1 (DYNAMICS) mean=  3.11077169868362E-09
DEBUG_STATS_RL:               GtNm1 (DYNAMICS) S.D.=  1.64801602651673E-07
DEBUG_STATS_RL:               GsNm1 (DYNAMICS)  min= -5.40705274358135E-07
DEBUG_STATS_RL:               GsNm1 (DYNAMICS)  max=  3.76987434316493E-07
DEBUG_STATS_RL:               GsNm1 (DYNAMICS) mean= -4.41326876979244E-10
DEBUG_STATS_RL:               GsNm1 (DYNAMICS) S.D.=  1.60747243093661E-08
DEBUG_STATS_RL:    cg2d_b (SOLVE_FOR_PRESSURE)  min= -2.03839727408985E+04
DEBUG_STATS_RL:    cg2d_b (SOLVE_FOR_PRESSURE)  max=  2.45051341513936E+04
DEBUG_STATS_RL:    cg2d_b (SOLVE_FOR_PRESSURE) mean=  4.56346579419893E+00
DEBUG_STATS_RL:    cg2d_b (SOLVE_FOR_PRESSURE) S.D.=  3.92915138594448E+03
 cg2d: Sum(rhs),rhsMax =   4.31110609242191E-01  1.60956282173978E+00
(PID.TID 0000.0001)  cg2d: iter=     1 ; resid.=  6.60335703973124E-02
(PID.TID 0000.0001)  cg2d: iter=     2 ; resid.=  3.48341590230665E-02
(PID.TID 0000.0001)  cg2d: iter=     3 ; resid.=  2.49495355297609E-02
(PID.TID 0000.0001)  cg2d: iter=     4 ; resid.=  2.26052009941803E-02
(PID.TID 0000.0001)  cg2d: iter=     5 ; resid.=  2.42427090743534E-02
(PID.TID 0000.0001)  cg2d: iter=     6 ; resid.=  2.28753052857212E-02
(PID.TID 0000.0001)  cg2d: iter=     7 ; resid.=  1.87252530705156E-02
(PID.TID 0000.0001)  cg2d: iter=     8 ; resid.=  1.36082052609719E-02
(PID.TID 0000.0001)  cg2d: iter=     9 ; resid.=  1.08533798607769E-02
(PID.TID 0000.0001)  cg2d: iter=    10 ; resid.=  9.29291800503959E-03
(PID.TID 0000.0001)  cg2d: iter=    11 ; resid.=  7.51938432854702E-03
(PID.TID 0000.0001)  cg2d: iter=    12 ; resid.=  5.88113866446933E-03
(PID.TID 0000.0001)  cg2d: iter=    13 ; resid.=  4.39385526625091E-03
(PID.TID 0000.0001)  cg2d: iter=    14 ; resid.=  3.37649320910302E-03
(PID.TID 0000.0001)  cg2d: iter=    15 ; resid.=  2.92566545268799E-03
(PID.TID 0000.0001)  cg2d: iter=    16 ; resid.=  2.41753896039037E-03
(PID.TID 0000.0001)  cg2d: iter=    17 ; resid.=  1.85051152104132E-03
(PID.TID 0000.0001)  cg2d: iter=    18 ; resid.=  1.44379158805636E-03
(PID.TID 0000.0001)  cg2d: iter=    19 ; resid.=  1.21030409815020E-03
(PID.TID 0000.0001)  cg2d: iter=    20 ; resid.=  1.06947171091577E-03
(PID.TID 0000.0001)  cg2d: iter=    21 ; resid.=  9.15434153967019E-04
(PID.TID 0000.0001)  cg2d: iter=    22 ; resid.=  7.55447847256576E-04
(PID.TID 0000.0001)  cg2d: iter=    23 ; resid.=  5.72591446192585E-04
(PID.TID 0000.0001)  cg2d: iter=    24 ; resid.=  4.64496391047697E-04
(PID.TID 0000.0001)  cg2d: iter=    25 ; resid.=  4.20196027312789E-04
(PID.TID 0000.0001)  cg2d: iter=    26 ; resid.=  3.38498980049990E-04
(PID.TID 0000.0001)  cg2d: iter=    27 ; resid.=  2.80018728961424E-04
(PID.TID 0000.0001)  cg2d: iter=    28 ; resid.=  2.35176323059626E-04
(PID.TID 0000.0001)  cg2d: iter=    29 ; resid.=  2.00897418385427E-04
(PID.TID 0000.0001)  cg2d: iter=    30 ; resid.=  1.67970838943981E-04
(PID.TID 0000.0001)  cg2d: iter=    31 ; resid.=  1.58851096802662E-04
(PID.TID 0000.0001)  cg2d: iter=    32 ; resid.=  1.40136740000253E-04
(PID.TID 0000.0001)  cg2d: iter=    33 ; resid.=  1.10466695721541E-04
(PID.TID 0000.0001)  cg2d: iter=    34 ; resid.=  8.83829697016503E-05
(PID.TID 0000.0001)  cg2d: iter=    35 ; resid.=  6.85655429020327E-05
(PID.TID 0000.0001)  cg2d: iter=    36 ; resid.=  5.78667777740626E-05
(PID.TID 0000.0001)  cg2d: iter=    37 ; resid.=  4.77439601702673E-05
(PID.TID 0000.0001)  cg2d: iter=    38 ; resid.=  4.14085843990625E-05
(PID.TID 0000.0001)  cg2d: iter=    39 ; resid.=  3.77774692774038E-05
(PID.TID 0000.0001)  cg2d: iter=    40 ; resid.=  3.47439000061203E-05
(PID.TID 0000.0001)  cg2d: iter=    41 ; resid.=  2.80950069065169E-05
(PID.TID 0000.0001)  cg2d: iter=    42 ; resid.=  2.32125412115747E-05
(PID.TID 0000.0001)  cg2d: iter=    43 ; resid.=  2.11635278775607E-05
(PID.TID 0000.0001)  cg2d: iter=    44 ; resid.=  1.78941851681671E-05
(PID.TID 0000.0001)  cg2d: iter=    45 ; resid.=  1.34286068048371E-05
(PID.TID 0000.0001)  cg2d: iter=    46 ; resid.=  1.00003509327795E-05
(PID.TID 0000.0001)  cg2d: iter=    47 ; resid.=  7.32993785145598E-06
(PID.TID 0000.0001)  cg2d: iter=    48 ; resid.=  5.73946591597998E-06
(PID.TID 0000.0001)  cg2d: iter=    49 ; resid.=  4.87620575781175E-06
(PID.TID 0000.0001)  cg2d: iter=    50 ; resid.=  4.21037710696767E-06
(PID.TID 0000.0001)  cg2d: iter=    51 ; resid.=  3.66988070413975E-06
(PID.TID 0000.0001)  cg2d: iter=    52 ; resid.=  3.13992767361852E-06
(PID.TID 0000.0001)  cg2d: iter=    53 ; resid.=  2.77406395887554E-06
(PID.TID 0000.0001)  cg2d: iter=    54 ; resid.=  2.54001759558034E-06
(PID.TID 0000.0001)  cg2d: iter=    55 ; resid.=  2.17171292418685E-06
(PID.TID 0000.0001)  cg2d: iter=    56 ; resid.=  1.71472078985592E-06
(PID.TID 0000.0001)  cg2d: iter=    57 ; resid.=  1.37558939153188E-06
(PID.TID 0000.0001)  cg2d: iter=    58 ; resid.=  1.20731304654362E-06
(PID.TID 0000.0001)  cg2d: iter=    59 ; resid.=  1.09134214618965E-06
(PID.TID 0000.0001)  cg2d: iter=    60 ; resid.=  8.97952472526101E-07
(PID.TID 0000.0001)  cg2d: iter=    61 ; resid.=  7.36385335021975E-07
(PID.TID 0000.0001)  cg2d: iter=    62 ; resid.=  6.06385393383590E-07
(PID.TID 0000.0001)  cg2d: iter=    63 ; resid.=  4.84433380118568E-07
(PID.TID 0000.0001)  cg2d: iter=    64 ; resid.=  3.80364278673292E-07
(PID.TID 0000.0001)  cg2d: iter=    65 ; resid.=  3.05650733734767E-07
(PID.TID 0000.0001)  cg2d: iter=    66 ; resid.=  2.49393056236671E-07
(PID.TID 0000.0001)  cg2d: iter=    67 ; resid.=  1.96219626666730E-07
(PID.TID 0000.0001)  cg2d: iter=    68 ; resid.=  1.55470312750687E-07
(PID.TID 0000.0001)  cg2d: iter=    69 ; resid.=  1.22273626969484E-07
(PID.TID 0000.0001)  cg2d: iter=    70 ; resid.=  9.73270769192226E-08
(PID.TID 0000.0001)  cg2d: iter=    71 ; resid.=  7.90859635614966E-08
(PID.TID 0000.0001)  cg2d: iter=    72 ; resid.=  6.63837626379483E-08
(PID.TID 0000.0001)  cg2d: iter=    73 ; resid.=  5.25453259363143E-08
(PID.TID 0000.0001)  cg2d: iter=    74 ; resid.=  4.11457512961235E-08
(PID.TID 0000.0001)  cg2d: iter=    75 ; resid.=  3.13421413156674E-08
(PID.TID 0000.0001)  cg2d: iter=    76 ; resid.=  2.70120436812366E-08
(PID.TID 0000.0001)  cg2d: iter=    77 ; resid.=  2.47616162239052E-08
(PID.TID 0000.0001)  cg2d: iter=    78 ; resid.=  2.15794175492063E-08
(PID.TID 0000.0001)  cg2d: iter=    79 ; resid.=  1.83812080141268E-08
(PID.TID 0000.0001)  cg2d: iter=    80 ; resid.=  1.70750955275669E-08
(PID.TID 0000.0001)  cg2d: iter=    81 ; resid.=  1.53205599189848E-08
(PID.TID 0000.0001)  cg2d: iter=    82 ; resid.=  1.30381268496587E-08
(PID.TID 0000.0001)  cg2d: iter=    83 ; resid.=  1.02057169962877E-08
(PID.TID 0000.0001)  cg2d: iter=    84 ; resid.=  8.24349077052145E-09
(PID.TID 0000.0001)  cg2d: iter=    85 ; resid.=  5.84274380766320E-09
(PID.TID 0000.0001)  cg2d: iter=    86 ; resid.=  4.13802473306003E-09
(PID.TID 0000.0001)  cg2d: iter=    87 ; resid.=  3.30047466332687E-09
(PID.TID 0000.0001)  cg2d: iter=    88 ; resid.=  2.58787827619974E-09
(PID.TID 0000.0001)  cg2d: iter=    89 ; resid.=  1.96635760559936E-09
(PID.TID 0000.0001)  cg2d: iter=    90 ; resid.=  1.66897507357993E-09
(PID.TID 0000.0001)  cg2d: iter=    91 ; resid.=  1.45464922992193E-09
(PID.TID 0000.0001)  cg2d: iter=    92 ; resid.=  1.18956172139712E-09
(PID.TID 0000.0001)  cg2d: iter=    93 ; resid.=  9.25020069281338E-10
(PID.TID 0000.0001)  cg2d: iter=    94 ; resid.=  7.11759654977827E-10
(PID.TID 0000.0001)  cg2d: iter=    95 ; resid.=  4.99833899358034E-10
(PID.TID 0000.0001)  cg2d: iter=    96 ; resid.=  3.87305205929378E-10
(PID.TID 0000.0001)  cg2d: iter=    97 ; resid.=  2.89158188509646E-10
(PID.TID 0000.0001)  cg2d: iter=    98 ; resid.=  2.21061141500910E-10
(PID.TID 0000.0001)  cg2d: iter=    99 ; resid.=  1.74486766637105E-10
(PID.TID 0000.0001)  cg2d: iter=   100 ; resid.=  1.39219344780551E-10
(PID.TID 0000.0001)  cg2d: iter=   101 ; resid.=  1.22213617568520E-10
(PID.TID 0000.0001)  cg2d: iter=   102 ; resid.=  1.05130852238988E-10
(PID.TID 0000.0001)  cg2d: iter=   103 ; resid.=  9.03027176177527E-11
(PID.TID 0000.0001)  cg2d: iter=   104 ; resid.=  6.97387704905043E-11
(PID.TID 0000.0001)  cg2d: iter=   105 ; resid.=  5.82943811409046E-11
(PID.TID 0000.0001)  cg2d: iter=   106 ; resid.=  5.27060474357285E-11
(PID.TID 0000.0001)  cg2d: iter=   107 ; resid.=  4.18837311646152E-11
(PID.TID 0000.0001)  cg2d: iter=   108 ; resid.=  3.27684364322893E-11
(PID.TID 0000.0001)  cg2d: iter=   109 ; resid.=  2.62820100645829E-11
(PID.TID 0000.0001)  cg2d: iter=   110 ; resid.=  2.08718111783939E-11
(PID.TID 0000.0001)  cg2d: iter=   111 ; resid.=  1.55743436171043E-11
(PID.TID 0000.0001)  cg2d: iter=   112 ; resid.=  1.13677719257017E-11
(PID.TID 0000.0001)  cg2d: iter=   113 ; resid.=  7.55701682188869E-12
(PID.TID 0000.0001)  cg2d: iter=   114 ; resid.=  5.44505028102104E-12
(PID.TID 0000.0001)  cg2d: iter=   115 ; resid.=  4.16108742678935E-12
(PID.TID 0000.0001)  cg2d: iter=   116 ; resid.=  3.26595987116966E-12
(PID.TID 0000.0001)  cg2d: iter=   117 ; resid.=  2.72211399668748E-12
(PID.TID 0000.0001)  cg2d: iter=   118 ; resid.=  2.14753473103011E-12
(PID.TID 0000.0001)  cg2d: iter=   119 ; resid.=  1.68448585113360E-12
(PID.TID 0000.0001)  cg2d: iter=   120 ; resid.=  1.31092080443492E-12
(PID.TID 0000.0001)  cg2d: iter=   121 ; resid.=  9.81794431434177E-13
(PID.TID 0000.0001)  cg2d: iter=   122 ; resid.=  7.27429628503629E-13
(PID.TID 0000.0001)  cg2d: iter=   123 ; resid.=  5.61177899388168E-13
(PID.TID 0000.0001)  cg2d: iter=   124 ; resid.=  4.62385906435319E-13
(PID.TID 0000.0001)  cg2d: iter=   125 ; resid.=  3.45569818397004E-13
(PID.TID 0000.0001)  cg2d: iter=   126 ; resid.=  2.44880782857148E-13
(PID.TID 0000.0001)  cg2d: iter=   127 ; resid.=  1.83363687097497E-13
(PID.TID 0000.0001)  cg2d: iter=   128 ; resid.=  1.32880822864371E-13
(PID.TID 0000.0001)  cg2d: iter=   129 ; resid.=  8.83438435722671E-14
DEBUG_STATS_RL:    cg2d_x (SOLVE_FOR_PRESSURE)  min= -1.85833123171290E+01
DEBUG_STATS_RL:    cg2d_x (SOLVE_FOR_PRESSURE)  max=  9.59302587822229E+00
DEBUG_STATS_RL:    cg2d_x (SOLVE_FOR_PRESSURE) mean= -1.87345011289587E+00
DEBUG_STATS_RL:    cg2d_x (SOLVE_FOR_PRESSURE) S.D.=  7.36989319033156E+00
(PID.TID 0000.0001)      cg2d_init_res =   2.50150178439227E-01
(PID.TID 0000.0001)      cg2d_iters(min,last) =      -1     129
(PID.TID 0000.0001)      cg2d_last_res =   8.83438435722671E-14
(PID.TID 0000.0001) // =======================================================
(PID.TID 0000.0001) // Begin MONITOR dynamic field statistics
(PID.TID 0000.0001) // =======================================================
(PID.TID 0000.0001) %MON time_tsnumber                =                    65
(PID.TID 0000.0001) %MON time_secondsf                =   5.6160000000000E+06
(PID.TID 0000.0001) %MON dynstat_eta_max              =   9.7788235252009E-01
(PID.TID 0000.0001) %MON dynstat_eta_min              =  -1.8943233758541E+00
(PID.TID 0000.0001) %MON dynstat_eta_mean             =  -4.7614107051678E-03
(PID.TID 0000.0001) %MON dynstat_eta_sd               =   6.5891921892703E-01
(PID.TID 0000.0001) %MON dynstat_eta_del2             =   2.4160145765117E-03
(PID.TID 0000.0001) %MON dynstat_uvel_max             =   1.2642519496778E-01
(PID.TID 0000.0001) %MON dynstat_uvel_min             =  -1.2448646833412E-01
(PID.TID 0000.0001) %MON dynstat_uvel_mean            =   2.1918078743938E-03
(PID.TID 0000.0001) %MON dynstat_uvel_sd              =   1.2410182418891E-02
(PID.TID 0000.0001) %MON dynstat_uvel_del2            =   7.7665042819536E-05
(PID.TID 0000.0001) %MON dynstat_vvel_max             =   1.4045438497360E-01
(PID.TID 0000.0001) %MON dynstat_vvel_min             =  -9.8810146063642E-02
(PID.TID 0000.0001) %MON dynstat_vvel_mean            =   1.8830050136891E-05
(PID.TID 0000.0001) %MON dynstat_vvel_sd              =   8.1918962089637E-03
(PID.TID 0000.0001) %MON dynstat_vvel_del2            =   7.1241329235172E-05
(PID.TID 0000.0001) %MON dynstat_wvel_max             =   1.1462349421250E-04
(PID.TID 0000.0001) %MON dynstat_wvel_min             =  -6.8870825612541E-05
(PID.TID 0000.0001) %MON dynstat_wvel_mean            =  -6.5771626367789E-23
(PID.TID 0000.0001) %MON dynstat_wvel_sd              =   1.0372044714012E-05
(PID.TID 0000.0001) %MON dynstat_wvel_del2            =   1.0704993139298E-07
(PID.TID 0000.0001) %MON dynstat_theta_max            =   3.0633194687672E+01
(PID.TID 0000.0001) %MON dynstat_theta_min            =  -1.9604457480754E+00
(PID.TID 0000.0001) %MON dynstat_theta_mean           =   3.6235637899928E+00
(PID.TID 0000.0001) %MON dynstat_theta_sd             =   4.4246375123430E+00
(PID.TID 0000.0001) %MON dynstat_theta_del2           =   4.8908146259930E-03
(PID.TID 0000.0001) %MON dynstat_salt_max             =   3.7467667422898E+01
(PID.TID 0000.0001) %MON dynstat_salt_min             =   2.9877809323447E+01
(PID.TID 0000.0001) %MON dynstat_salt_mean            =   3.4718006169311E+01
(PID.TID 0000.0001) %MON dynstat_salt_sd              =   2.9649948011600E-01
(PID.TID 0000.0001) %MON dynstat_salt_del2            =   9.8917806352421E-04
(PID.TID 0000.0001) %MON dynstat_sst_max              =   3.0633194687672E+01
(PID.TID 0000.0001) %MON dynstat_sst_min              =  -1.9604457480754E+00
(PID.TID 0000.0001) %MON dynstat_sst_mean             =   1.9011153588542E+01
(PID.TID 0000.0001) %MON dynstat_sst_sd               =   9.0860264203242E+00
(PID.TID 0000.0001) %MON dynstat_sst_del2             =   2.8194164821522E-02
(PID.TID 0000.0001) %MON dynstat_sss_max              =   3.7451288310542E+01
(PID.TID 0000.0001) %MON dynstat_sss_min              =   2.9877809323447E+01
(PID.TID 0000.0001) %MON dynstat_sss_mean             =   3.4838570235690E+01
(PID.TID 0000.0001) %MON dynstat_sss_sd               =   9.8217171726948E-01
(PID.TID 0000.0001) %MON dynstat_sss_del2             =   8.0385868224846E-03
(PID.TID 0000.0001) %MON forcing_qnet_max             =   3.0528735860189E+02
(PID.TID 0000.0001) %MON forcing_qnet_min             =  -1.6714766286214E+02
(PID.TID 0000.0001) %MON forcing_qnet_mean            =  -9.7218004860374E+00
(PID.TID 0000.0001) %MON forcing_qnet_sd              =   5.5429663487321E+01
(PID.TID 0000.0001) %MON forcing_qnet_del2            =   8.6929108009557E-01
(PID.TID 0000.0001) %MON forcing_qsw_max              =   0.0000000000000E+00
(PID.TID 0000.0001) %MON forcing_qsw_min              =   0.0000000000000E+00
(PID.TID 0000.0001) %MON forcing_qsw_mean             =   0.0000000000000E+00
(PID.TID 0000.0001) %MON forcing_qsw_sd               =   0.0000000000000E+00
(PID.TID 0000.0001) %MON forcing_qsw_del2             =   0.0000000000000E+00
(PID.TID 0000.0001) %MON forcing_empmr_max            =   6.9172141555403E-05
(PID.TID 0000.0001) %MON forcing_empmr_min            =  -7.8873442059072E-05
(PID.TID 0000.0001) %MON forcing_empmr_mean           =   6.9470029329661E-07
(PID.TID 0000.0001) %MON forcing_empmr_sd             =   2.6662470783822E-05
(PID.TID 0000.0001) %MON forcing_empmr_del2           =   3.5610054420546E-07
(PID.TID 0000.0001) %MON forcing_fu_max               =   3.3619582355022E-01
(PID.TID 0000.0001) %MON forcing_fu_min               =  -3.1846311191718E-01
(PID.TID 0000.0001) %MON forcing_fu_mean              =   1.9420533816345E-02
(PID.TID 0000.0001) %MON forcing_fu_sd                =   9.6733067225558E-02
(PID.TID 0000.0001) %MON forcing_fu_del2              =   7.3574349447110E-04
(PID.TID 0000.0001) %MON forcing_fv_max               =   1.4864443540573E-01
(PID.TID 0000.0001) %MON forcing_fv_min               =  -1.7685593118270E-01
(PID.TID 0000.0001) %MON forcing_fv_mean              =  -7.4148635903804E-03
(PID.TID 0000.0001) %MON forcing_fv_sd                =   4.1716101821581E-02
(PID.TID 0000.0001) %MON forcing_fv_del2              =   4.6757590300349E-04
(PID.TID 0000.0001) %MON trAdv_CFL_u_max              =   4.2005625277550E-02
(PID.TID 0000.0001) %MON trAdv_CFL_v_max              =   2.6831623585726E-02
(PID.TID 0000.0001) %MON trAdv_CFL_w_max              =   3.0158121935705E-02
(PID.TID 0000.0001) %MON advcfl_uvel_max              =   4.3396136764841E-02
(PID.TID 0000.0001) %MON advcfl_vvel_max              =   2.7288034382859E-02
(PID.TID 0000.0001) %MON advcfl_wvel_max              =   2.6851771136175E-02
(PID.TID 0000.0001) %MON advcfl_W_hf_max              =   3.1665582356399E-02
(PID.TID 0000.0001) %MON pe_b_mean                    =   5.5560766278680E-04
(PID.TID 0000.0001) %MON ke_max                       =   1.1169911264786E-02
(PID.TID 0000.0001) %MON ke_mean                      =   1.0228031391870E-04
(PID.TID 0000.0001) %MON ke_vol                       =   1.3226782436723E+18
(PID.TID 0000.0001) %MON vort_r_min                   =  -3.0887362403571E-07
(PID.TID 0000.0001) %MON vort_r_max                   =   3.9867612095543E-07
(PID.TID 0000.0001) %MON vort_a_mean                  =  -2.5274807030642E-05
(PID.TID 0000.0001) %MON vort_a_sd                    =   7.3604642045210E-05
(PID.TID 0000.0001) %MON vort_p_mean                  =  -3.1845655337302E-05
(PID.TID 0000.0001) %MON vort_p_sd                    =   1.3162511466437E-04
(PID.TID 0000.0001) %MON surfExpan_theta_mean         =  -3.2524657589856E-09
(PID.TID 0000.0001) %MON surfExpan_salt_mean          =   3.2712844043744E-08
(PID.TID 0000.0001) // =======================================================
(PID.TID 0000.0001) // End MONITOR dynamic field statistics
(PID.TID 0000.0001) // =======================================================
 EXTERNAL_FIELDS_LOAD,        65 : iP,iLd,i0,i1=    2    3    2    3 ; Wght=  0.3333333333  0.6666666667
 EXTERNAL_FIELDS_LOAD: (fu0,1),fu,fv= -1.4435E-02 -2.7199E-02 -2.2944E-02 -6.2639E-03
 EXTERNAL_FIELDS_LOAD: SST,SSS,Q,E-P= -2.9989E-01  3.4526E+01  2.2376E+02  8.8463E-06
DEBUG_STATS_RL:          Uvel (THERMODYNAMICS)  min= -1.24486468334120E-01
DEBUG_STATS_RL:          Uvel (THERMODYNAMICS)  max=  1.26425194967777E-01
DEBUG_STATS_RL:          Uvel (THERMODYNAMICS) mean=  5.45653045718897E-03
DEBUG_STATS_RL:          Uvel (THERMODYNAMICS) S.D.=  2.01963198064689E-02
DEBUG_STATS_RL:          Vvel (THERMODYNAMICS)  min= -9.88101460636423E-02
DEBUG_STATS_RL:          Vvel (THERMODYNAMICS)  max=  1.40454384973601E-01
DEBUG_STATS_RL:          Vvel (THERMODYNAMICS) mean=  5.57658652273472E-04
DEBUG_STATS_RL:          Vvel (THERMODYNAMICS) S.D.=  1.34463561904382E-02
DEBUG_STATS_RL:          Wvel (THERMODYNAMICS)  min= -6.88708256125409E-05
DEBUG_STATS_RL:          Wvel (THERMODYNAMICS)  max=  1.14623494212503E-04
DEBUG_STATS_RL:          Wvel (THERMODYNAMICS) mean= -1.26230358146512E-07
DEBUG_STATS_RL:          Wvel (THERMODYNAMICS) S.D.=  9.21617738586357E-06
DEBUG_STATS_RL:         Theta (THERMODYNAMICS)  min= -1.95889318594528E+00
DEBUG_STATS_RL:         Theta (THERMODYNAMICS)  max=  3.06599736195168E+01
DEBUG_STATS_RL:         Theta (THERMODYNAMICS) mean=  3.22012795532080E+00
DEBUG_STATS_RL:         Theta (THERMODYNAMICS) S.D.=  5.87981681354590E+00
DEBUG_STATS_RL:          Salt (THERMODYNAMICS)  min= -2.42861286636753E-17
DEBUG_STATS_RL:          Salt (THERMODYNAMICS)  max=  3.74675462558115E+01
DEBUG_STATS_RL:          Salt (THERMODYNAMICS) mean=  1.88447548407466E+01
DEBUG_STATS_RL:          Salt (THERMODYNAMICS) S.D.=  1.73002949220788E+01
DEBUG_STATS_RL:         GtNm1 (THERMODYNAMICS)  min= -5.14242550125663E-06
DEBUG_STATS_RL:         GtNm1 (THERMODYNAMICS)  max=  2.72050680002853E-06
DEBUG_STATS_RL:         GtNm1 (THERMODYNAMICS) mean=  3.27960038483927E-09
DEBUG_STATS_RL:         GtNm1 (THERMODYNAMICS) S.D.=  1.62054729262765E-07
DEBUG_STATS_RL:         GsNm1 (THERMODYNAMICS)  min= -5.65435841187882E-07
DEBUG_STATS_RL:         GsNm1 (THERMODYNAMICS)  max=  3.93664859969789E-07
DEBUG_STATS_RL:         GsNm1 (THERMODYNAMICS) mean= -4.11831282323444E-10
DEBUG_STATS_RL:         GsNm1 (THERMODYNAMICS) S.D.=  1.56838922785298E-08
DEBUG_STATS_RL:                EtaN (DYNAMICS)  min= -1.89432337585405E+00
DEBUG_STATS_RL:                EtaN (DYNAMICS)  max=  9.77882352520088E-01
DEBUG_STATS_RL:                EtaN (DYNAMICS) mean= -1.90973507940458E-01
DEBUG_STATS_RL:                EtaN (DYNAMICS) S.D.=  7.51263322154086E-01
DEBUG_STATS_RL:                Uvel (DYNAMICS)  min= -1.24486468334120E-01
DEBUG_STATS_RL:                Uvel (DYNAMICS)  max=  1.26425194967777E-01
DEBUG_STATS_RL:                Uvel (DYNAMICS) mean=  5.45653045718897E-03
DEBUG_STATS_RL:                Uvel (DYNAMICS) S.D.=  2.01963198064689E-02
DEBUG_STATS_RL:                Vvel (DYNAMICS)  min= -9.88101460636423E-02
DEBUG_STATS_RL:                Vvel (DYNAMICS)  max=  1.40454384973601E-01
DEBUG_STATS_RL:                Vvel (DYNAMICS) mean=  5.57658652273472E-04
DEBUG_STATS_RL:                Vvel (DYNAMICS) S.D.=  1.34463561904382E-02
DEBUG_STATS_RL:                Wvel (DYNAMICS)  min= -6.88708256125409E-05
DEBUG_STATS_RL:                Wvel (DYNAMICS)  max=  1.14623494212503E-04
DEBUG_STATS_RL:                Wvel (DYNAMICS) mean= -1.26230358146512E-07
DEBUG_STATS_RL:                Wvel (DYNAMICS) S.D.=  9.21617738586357E-06
DEBUG_STATS_RL:               Theta (DYNAMICS)  min= -1.95889318594528E+00
DEBUG_STATS_RL:               Theta (DYNAMICS)  max=  3.06599736195168E+01
DEBUG_STATS_RL:               Theta (DYNAMICS) mean=  3.22012795532080E+00
DEBUG_STATS_RL:               Theta (DYNAMICS) S.D.=  5.87981681354590E+00
DEBUG_STATS_RL:                Salt (DYNAMICS)  min= -2.42861286636753E-17
DEBUG_STATS_RL:                Salt (DYNAMICS)  max=  3.74675462558115E+01
DEBUG_STATS_RL:                Salt (DYNAMICS) mean=  1.88447548407466E+01
DEBUG_STATS_RL:                Salt (DYNAMICS) S.D.=  1.73002949220788E+01
DEBUG_STATS_RL:                  Gu (DYNAMICS)  min= -1.24247902725944E-01
DEBUG_STATS_RL:                  Gu (DYNAMICS)  max=  1.31098307629263E-01
DEBUG_STATS_RL:                  Gu (DYNAMICS) mean=  5.48562451505277E-03
DEBUG_STATS_RL:                  Gu (DYNAMICS) S.D.=  2.07649521031636E-02
DEBUG_STATS_RL:                  Gv (DYNAMICS)  min= -1.08722130563483E-01
DEBUG_STATS_RL:                  Gv (DYNAMICS)  max=  1.41164503536738E-01
DEBUG_STATS_RL:                  Gv (DYNAMICS) mean=  3.07037358305814E-03
DEBUG_STATS_RL:                  Gv (DYNAMICS) S.D.=  1.45920986198977E-02
DEBUG_STATS_RL:               GuNm1 (DYNAMICS)  min= -9.92089770846636E-06
DEBUG_STATS_RL:               GuNm1 (DYNAMICS)  max=  9.23939946583096E-06
DEBUG_STATS_RL:               GuNm1 (DYNAMICS) mean=  3.52516580067139E-09
DEBUG_STATS_RL:               GuNm1 (DYNAMICS) S.D.=  1.19928914772679E-06
DEBUG_STATS_RL:               GvNm1 (DYNAMICS)  min= -1.00235713723915E-05
DEBUG_STATS_RL:               GvNm1 (DYNAMICS)  max=  1.57318428007985E-05
DEBUG_STATS_RL:               GvNm1 (DYNAMICS) mean=  7.35792924421668E-07
DEBUG_STATS_RL:               GvNm1 (DYNAMICS) S.D.=  2.63739906210935E-06
DEBUG_STATS_RL:               GtNm1 (DYNAMICS)  min= -5.14242550125663E-06
DEBUG_STATS_RL:               GtNm1 (DYNAMICS)  max=  2.72050680002853E-06
DEBUG_STATS_RL:               GtNm1 (DYNAMICS) mean=  3.27960038483927E-09
DEBUG_STATS_RL:               GtNm1 (DYNAMICS) S.D.=  1.62054729262765E-07
DEBUG_STATS_RL:               GsNm1 (DYNAMICS)  min= -5.65435841187882E-07
DEBUG_STATS_RL:               GsNm1 (DYNAMICS)  max=  3.93664859969789E-07
DEBUG_STATS_RL:               GsNm1 (DYNAMICS) mean= -4.11831282323444E-10
DEBUG_STATS_RL:               GsNm1 (DYNAMICS) S.D.=  1.56838922785298E-08
DEBUG_STATS_RL:    cg2d_b (SOLVE_FOR_PRESSURE)  min= -2.09470652332427E+04
DEBUG_STATS_RL:    cg2d_b (SOLVE_FOR_PRESSURE)  max=  2.43542335059894E+04
DEBUG_STATS_RL:    cg2d_b (SOLVE_FOR_PRESSURE) mean=  4.61799996732738E+00
DEBUG_STATS_RL:    cg2d_b (SOLVE_FOR_PRESSURE) S.D.=  3.92968639663024E+03
 cg2d: Sum(rhs),rhsMax =   4.38965567187066E-01  1.59965126332436E+00
(PID.TID 0000.0001)  cg2d: iter=     1 ; resid.=  6.68682050849287E-02
(PID.TID 0000.0001)  cg2d: iter=     2 ; resid.=  3.60170631642196E-02
(PID.TID 0000.0001)  cg2d: iter=     3 ; resid.=  2.80895379975173E-02
(PID.TID 0000.0001)  cg2d: iter=     4 ; resid.=  2.75448615740138E-02
(PID.TID 0000.0001)  cg2d: iter=     5 ; resid.=  3.00417023081032E-02
(PID.TID 0000.0001)  cg2d: iter=     6 ; resid.=  2.74857916950342E-02
(PID.TID 0000.0001)  cg2d: iter=     7 ; resid.=  2.16670185086509E-02
(PID.TID 0000.0001)  cg2d: iter=     8 ; resid.=  1.54190486374935E-02
(PID.TID 0000.0001)  cg2d: iter=     9 ; resid.=  1.22135017051812E-02
(PID.TID 0000.0001)  cg2d: iter=    10 ; resid.=  1.02765033686215E-02
(PID.TID 0000.0001)  cg2d: iter=    11 ; resid.=  8.16021863711007E-03
(PID.TID 0000.0001)  cg2d: iter=    12 ; resid.=  6.32032361613104E-03
(PID.TID 0000.0001)  cg2d: iter=    13 ; resid.=  4.79283777818796E-03
(PID.TID 0000.0001)  cg2d: iter=    14 ; resid.=  3.73253864411371E-03
(PID.TID 0000.0001)  cg2d: iter=    15 ; resid.=  3.22068212574364E-03
(PID.TID 0000.0001)  cg2d: iter=    16 ; resid.=  2.70359350129666E-03
(PID.TID 0000.0001)  cg2d: iter=    17 ; resid.=  2.15939387852976E-03
(PID.TID 0000.0001)  cg2d: iter=    18 ; resid.=  1.79709316756291E-03
(PID.TID 0000.0001)  cg2d: iter=    19 ; resid.=  1.57704538586717E-03
(PID.TID 0000.0001)  cg2d: iter=    20 ; resid.=  1.42899418804509E-03
(PID.TID 0000.0001)  cg2d: iter=    21 ; resid.=  1.23481877668603E-03
(PID.TID 0000.0001)  cg2d: iter=    22 ; resid.=  1.04001032660665E-03
(PID.TID 0000.0001)  cg2d: iter=    23 ; resid.=  8.21991028799961E-04
(PID.TID 0000.0001)  cg2d: iter=    24 ; resid.=  6.80622155689262E-04
(PID.TID 0000.0001)  cg2d: iter=    25 ; resid.=  6.07278375143031E-04
(PID.TID 0000.0001)  cg2d: iter=    26 ; resid.=  4.75266133749570E-04
(PID.TID 0000.0001)  cg2d: iter=    27 ; resid.=  3.94122940031839E-04
(PID.TID 0000.0001)  cg2d: iter=    28 ; resid.=  3.29836184104974E-04
(PID.TID 0000.0001)  cg2d: iter=    29 ; resid.=  2.77472125234231E-04
(PID.TID 0000.0001)  cg2d: iter=    30 ; resid.=  2.26875818580602E-04
(PID.TID 0000.0001)  cg2d: iter=    31 ; resid.=  2.08754152393291E-04
(PID.TID 0000.0001)  cg2d: iter=    32 ; resid.=  1.78559904661890E-04
(PID.TID 0000.0001)  cg2d: iter=    33 ; resid.=  1.37998692969190E-04
(PID.TID 0000.0001)  cg2d: iter=    34 ; resid.=  1.09764170350547E-04
(PID.TID 0000.0001)  cg2d: iter=    35 ; resid.=  8.46707480449044E-05
(PID.TID 0000.0001)  cg2d: iter=    36 ; resid.=  7.23782473657046E-05
(PID.TID 0000.0001)  cg2d: iter=    37 ; resid.=  6.10038423707619E-05
(PID.TID 0000.0001)  cg2d: iter=    38 ; resid.=  5.40603386456611E-05
(PID.TID 0000.0001)  cg2d: iter=    39 ; resid.=  4.95682721590613E-05
(PID.TID 0000.0001)  cg2d: iter=    40 ; resid.=  4.42051891338509E-05
(PID.TID 0000.0001)  cg2d: iter=    41 ; resid.=  3.38905443161683E-05
(PID.TID 0000.0001)  cg2d: iter=    42 ; resid.=  2.75000444967613E-05
(PID.TID 0000.0001)  cg2d: iter=    43 ; resid.=  2.52480295874476E-05
(PID.TID 0000.0001)  cg2d: iter=    44 ; resid.=  2.13549258859918E-05
(PID.TID 0000.0001)  cg2d: iter=    45 ; resid.=  1.60570786183891E-05
(PID.TID 0000.0001)  cg2d: iter=    46 ; resid.=  1.20105368145094E-05
(PID.TID 0000.0001)  cg2d: iter=    47 ; resid.=  9.08869736104341E-06
(PID.TID 0000.0001)  cg2d: iter=    48 ; resid.=  7.56828526721609E-06
(PID.TID 0000.0001)  cg2d: iter=    49 ; resid.=  7.03587932706869E-06
(PID.TID 0000.0001)  cg2d: iter=    50 ; resid.=  6.34423088297395E-06
(PID.TID 0000.0001)  cg2d: iter=    51 ; resid.=  5.59207479687201E-06
(PID.TID 0000.0001)  cg2d: iter=    52 ; resid.=  4.69374124602594E-06
(PID.TID 0000.0001)  cg2d: iter=    53 ; resid.=  4.15300115485330E-06
(PID.TID 0000.0001)  cg2d: iter=    54 ; resid.=  3.76243075502011E-06
(PID.TID 0000.0001)  cg2d: iter=    55 ; resid.=  3.12450434729908E-06
(PID.TID 0000.0001)  cg2d: iter=    56 ; resid.=  2.38531980588194E-06
(PID.TID 0000.0001)  cg2d: iter=    57 ; resid.=  1.88192023301006E-06
(PID.TID 0000.0001)  cg2d: iter=    58 ; resid.=  1.67004516976500E-06
(PID.TID 0000.0001)  cg2d: iter=    59 ; resid.=  1.46086951234833E-06
(PID.TID 0000.0001)  cg2d: iter=    60 ; resid.=  1.13594330893094E-06
(PID.TID 0000.0001)  cg2d: iter=    61 ; resid.=  8.69316743908794E-07
(PID.TID 0000.0001)  cg2d: iter=    62 ; resid.=  6.80843586925806E-07
(PID.TID 0000.0001)  cg2d: iter=    63 ; resid.=  5.36375663620470E-07
(PID.TID 0000.0001)  cg2d: iter=    64 ; resid.=  4.19353017535512E-07
(PID.TID 0000.0001)  cg2d: iter=    65 ; resid.=  3.39093043054818E-07
(PID.TID 0000.0001)  cg2d: iter=    66 ; resid.=  2.80234381140013E-07
(PID.TID 0000.0001)  cg2d: iter=    67 ; resid.=  2.26937259907030E-07
(PID.TID 0000.0001)  cg2d: iter=    68 ; resid.=  1.90383242438935E-07
(PID.TID 0000.0001)  cg2d: iter=    69 ; resid.=  1.59582488217934E-07
(PID.TID 0000.0001)  cg2d: iter=    70 ; resid.=  1.34018293396993E-07
(PID.TID 0000.0001)  cg2d: iter=    71 ; resid.=  1.10950621093210E-07
(PID.TID 0000.0001)  cg2d: iter=    72 ; resid.=  9.20731428414308E-08
(PID.TID 0000.0001)  cg2d: iter=    73 ; resid.=  7.45230551653836E-08
(PID.TID 0000.0001)  cg2d: iter=    74 ; resid.=  6.20003422869193E-08
(PID.TID 0000.0001)  cg2d: iter=    75 ; resid.=  5.11309427165479E-08
(PID.TID 0000.0001)  cg2d: iter=    76 ; resid.=  4.53812321232049E-08
(PID.TID 0000.0001)  cg2d: iter=    77 ; resid.=  4.08734462520302E-08
(PID.TID 0000.0001)  cg2d: iter=    78 ; resid.=  3.43872874993841E-08
(PID.TID 0000.0001)  cg2d: iter=    79 ; resid.=  2.89696079310288E-08
(PID.TID 0000.0001)  cg2d: iter=    80 ; resid.=  2.53803316726519E-08
(PID.TID 0000.0001)  cg2d: iter=    81 ; resid.=  2.07964193498168E-08
(PID.TID 0000.0001)  cg2d: iter=    82 ; resid.=  1.63008610832404E-08
(PID.TID 0000.0001)  cg2d: iter=    83 ; resid.=  1.19328012758342E-08
(PID.TID 0000.0001)  cg2d: iter=    84 ; resid.=  9.30748291100865E-09
(PID.TID 0000.0001)  cg2d: iter=    85 ; resid.=  6.52061603847520E-09
(PID.TID 0000.0001)  cg2d: iter=    86 ; resid.=  4.54162834755751E-09
(PID.TID 0000.0001)  cg2d: iter=    87 ; resid.=  3.62666502174452E-09
(PID.TID 0000.0001)  cg2d: iter=    88 ; resid.=  2.83206683407577E-09
(PID.TID 0000.0001)  cg2d: iter=    89 ; resid.=  2.17155122291463E-09
(PID.TID 0000.0001)  cg2d: iter=    90 ; resid.=  1.84536298059119E-09
(PID.TID 0000.0001)  cg2d: iter=    91 ; resid.=  1.61993113926328E-09
(PID.TID 0000.0001)  cg2d: iter=    92 ; resid.=  1.34310936671425E-09
(PID.TID 0000.0001)  cg2d: iter=    93 ; resid.=  1.07592684052300E-09
(PID.TID 0000.0001)  cg2d: iter=    94 ; resid.=  8.54145162570658E-10
(PID.TID 0000.0001)  cg2d: iter=    95 ; resid.=  6.18461719630214E-10
(PID.TID 0000.0001)  cg2d: iter=    96 ; resid.=  4.90720886016329E-10
(PID.TID 0000.0001)  cg2d: iter=    97 ; resid.=  3.91980994670172E-10
(PID.TID 0000.0001)  cg2d: iter=    98 ; resid.=  3.30383490775667E-10
(PID.TID 0000.0001)  cg2d: iter=    99 ; resid.=  2.83783291220411E-10
(PID.TID 0000.0001)  cg2d: iter=   100 ; resid.=  2.35713168597205E-10
(PID.TID 0000.0001)  cg2d: iter=   101 ; resid.=  2.06290273241126E-10
(PID.TID 0000.0001)  cg2d: iter=   102 ; resid.=  1.73251804340982E-10
(PID.TID 0000.0001)  cg2d: iter=   103 ; resid.=  1.39048983666974E-10
(PID.TID 0000.0001)  cg2d: iter=   104 ; resid.=  1.01150251137825E-10
(PID.TID 0000.0001)  cg2d: iter=   105 ; resid.=  7.92424609863192E-11
(PID.TID 0000.0001)  cg2d: iter=   106 ; resid.=  6.81101214925364E-11
(PID.TID 0000.0001)  cg2d: iter=   107 ; resid.=  5.06408984849442E-11
(PID.TID 0000.0001)  cg2d: iter=   108 ; resid.=  3.77638567064309E-11
(PID.TID 0000.0001)  cg2d: iter=   109 ; resid.=  2.92198002561464E-11
(PID.TID 0000.0001)  cg2d: iter=   110 ; resid.=  2.15679420322777E-11
(PID.TID 0000.0001)  cg2d: iter=   111 ; resid.=  1.54154844580131E-11
(PID.TID 0000.0001)  cg2d: iter=   112 ; resid.=  1.09688684929481E-11
(PID.TID 0000.0001)  cg2d: iter=   113 ; resid.=  7.22926096168076E-12
(PID.TID 0000.0001)  cg2d: iter=   114 ; resid.=  5.20141368633874E-12
(PID.TID 0000.0001)  cg2d: iter=   115 ; resid.=  3.85755231488266E-12
(PID.TID 0000.0001)  cg2d: iter=   116 ; resid.=  2.89684770927897E-12
(PID.TID 0000.0001)  cg2d: iter=   117 ; resid.=  2.29816112100352E-12
(PID.TID 0000.0001)  cg2d: iter=   118 ; resid.=  1.74417094446964E-12
(PID.TID 0000.0001)  cg2d: iter=   119 ; resid.=  1.32551846634133E-12
(PID.TID 0000.0001)  cg2d: iter=   120 ; resid.=  1.01801224457285E-12
(PID.TID 0000.0001)  cg2d: iter=   121 ; resid.=  7.58789212408512E-13
(PID.TID 0000.0001)  cg2d: iter=   122 ; resid.=  5.77064564936619E-13
(PID.TID 0000.0001)  cg2d: iter=   123 ; resid.=  4.46047966287625E-13
(PID.TID 0000.0001)  cg2d: iter=   124 ; resid.=  3.78923923531567E-13
(PID.TID 0000.0001)  cg2d: iter=   125 ; resid.=  2.96480966049908E-13
(PID.TID 0000.0001)  cg2d: iter=   126 ; resid.=  2.20521787618322E-13
(PID.TID 0000.0001)  cg2d: iter=   127 ; resid.=  1.72819897439239E-13
(PID.TID 0000.0001)  cg2d: iter=   128 ; resid.=  1.29385554059166E-13
(PID.TID 0000.0001)  cg2d: iter=   129 ; resid.=  8.67392694446273E-14
DEBUG_STATS_RL:    cg2d_x (SOLVE_FOR_PRESSURE)  min= -1.85883538395254E+01
DEBUG_STATS_RL:    cg2d_x (SOLVE_FOR_PRESSURE)  max=  9.60091810796115E+00
DEBUG_STATS_RL:    cg2d_x (SOLVE_FOR_PRESSURE) mean= -1.87225539090261E+00
DEBUG_STATS_RL:    cg2d_x (SOLVE_FOR_PRESSURE) S.D.=  7.35401858538630E+00
(PID.TID 0000.0001)      cg2d_init_res =   2.50599334157538E-01
(PID.TID 0000.0001)      cg2d_iters(min,last) =      -1     129
(PID.TID 0000.0001)      cg2d_last_res =   8.67392694446273E-14
(PID.TID 0000.0001) // =======================================================
(PID.TID 0000.0001) // Begin MONITOR dynamic field statistics
(PID.TID 0000.0001) // =======================================================
(PID.TID 0000.0001) %MON time_tsnumber                =                    66
(PID.TID 0000.0001) %MON time_secondsf                =   5.7024000000000E+06
(PID.TID 0000.0001) %MON dynstat_eta_max              =   9.7868686115816E-01
(PID.TID 0000.0001) %MON dynstat_eta_min              =  -1.8948372925103E+00
(PID.TID 0000.0001) %MON dynstat_eta_mean             =  -4.8183103528135E-03
(PID.TID 0000.0001) %MON dynstat_eta_sd               =   6.5679184425275E-01
(PID.TID 0000.0001) %MON dynstat_eta_del2             =   2.4190382657414E-03
(PID.TID 0000.0001) %MON dynstat_uvel_max             =   1.3161092945513E-01
(PID.TID 0000.0001) %MON dynstat_uvel_min             =  -1.2420930077063E-01
(PID.TID 0000.0001) %MON dynstat_uvel_mean            =   2.1950499057367E-03
(PID.TID 0000.0001) %MON dynstat_uvel_sd              =   1.2502013358154E-02
(PID.TID 0000.0001) %MON dynstat_uvel_del2            =   7.8131594534740E-05
(PID.TID 0000.0001) %MON dynstat_vvel_max             =   1.4189777561818E-01
(PID.TID 0000.0001) %MON dynstat_vvel_min             =  -9.8231230864415E-02
(PID.TID 0000.0001) %MON dynstat_vvel_mean            =   2.2746967517654E-05
(PID.TID 0000.0001) %MON dynstat_vvel_sd              =   8.1782570121124E-03
(PID.TID 0000.0001) %MON dynstat_vvel_del2            =   7.1390439385562E-05
(PID.TID 0000.0001) %MON dynstat_wvel_max             =   1.2000126527042E-04
(PID.TID 0000.0001) %MON dynstat_wvel_min             =  -7.1543259948802E-05
(PID.TID 0000.0001) %MON dynstat_wvel_mean            =   1.3411792232923E-22
(PID.TID 0000.0001) %MON dynstat_wvel_sd              =   1.0278010230769E-05
(PID.TID 0000.0001) %MON dynstat_wvel_del2            =   1.0573998304284E-07
(PID.TID 0000.0001) %MON dynstat_theta_max            =   3.0659973619517E+01
(PID.TID 0000.0001) %MON dynstat_theta_min            =  -1.9588931859453E+00
(PID.TID 0000.0001) %MON dynstat_theta_mean           =   3.6236174111043E+00
(PID.TID 0000.0001) %MON dynstat_theta_sd             =   4.4248591744833E+00
(PID.TID 0000.0001) %MON dynstat_theta_del2           =   4.8874743156655E-03
(PID.TID 0000.0001) %MON dynstat_salt_max             =   3.7467546255812E+01
(PID.TID 0000.0001) %MON dynstat_salt_min             =   2.9879848066207E+01
(PID.TID 0000.0001) %MON dynstat_salt_mean            =   3.4718006090103E+01
(PID.TID 0000.0001) %MON dynstat_salt_sd              =   2.9650461493245E-01
(PID.TID 0000.0001) %MON dynstat_salt_del2            =   9.8870943183380E-04
(PID.TID 0000.0001) %MON dynstat_sst_max              =   3.0659973619517E+01
(PID.TID 0000.0001) %MON dynstat_sst_min              =  -1.9588931859453E+00
(PID.TID 0000.0001) %MON dynstat_sst_mean             =   1.9015682566307E+01
(PID.TID 0000.0001) %MON dynstat_sst_sd               =   9.0907131494100E+00
(PID.TID 0000.0001) %MON dynstat_sst_del2             =   2.8212857530040E-02
(PID.TID 0000.0001) %MON dynstat_sss_max              =   3.7451887076620E+01
(PID.TID 0000.0001) %MON dynstat_sss_min              =   2.9879848066207E+01
(PID.TID 0000.0001) %MON dynstat_sss_mean             =   3.4838309701950E+01
(PID.TID 0000.0001) %MON dynstat_sss_sd               =   9.8245831113353E-01
(PID.TID 0000.0001) %MON dynstat_sss_del2             =   8.0421025670654E-03
(PID.TID 0000.0001) %MON forcing_qnet_max             =   3.0248920694987E+02
(PID.TID 0000.0001) %MON forcing_qnet_min             =  -1.6684838358561E+02
(PID.TID 0000.0001) %MON forcing_qnet_mean            =  -9.4984609864109E+00
(PID.TID 0000.0001) %MON forcing_qnet_sd              =   5.4405557382944E+01
(PID.TID 0000.0001) %MON forcing_qnet_del2            =   8.6680590177986E-01
(PID.TID 0000.0001) %MON forcing_qsw_max              =   0.0000000000000E+00
(PID.TID 0000.0001) %MON forcing_qsw_min              =   0.0000000000000E+00
(PID.TID 0000.0001) %MON forcing_qsw_mean             =   0.0000000000000E+00
(PID.TID 0000.0001) %MON forcing_qsw_sd               =   0.0000000000000E+00
(PID.TID 0000.0001) %MON forcing_qsw_del2             =   0.0000000000000E+00
(PID.TID 0000.0001) %MON forcing_empmr_max            =   6.9166385211853E-05
(PID.TID 0000.0001) %MON forcing_empmr_min            =  -7.9272621652156E-05
(PID.TID 0000.0001) %MON forcing_empmr_mean           =   6.8161036242225E-07
(PID.TID 0000.0001) %MON forcing_empmr_sd             =   2.6616217830995E-05
(PID.TID 0000.0001) %MON forcing_empmr_del2           =   3.5673956520536E-07
(PID.TID 0000.0001) %MON forcing_fu_max               =   3.3813723921776E-01
(PID.TID 0000.0001) %MON forcing_fu_min               =  -3.2483523090680E-01
(PID.TID 0000.0001) %MON forcing_fu_mean              =   1.9514733405804E-02
(PID.TID 0000.0001) %MON forcing_fu_sd                =   9.7132739592026E-02
(PID.TID 0000.0001) %MON forcing_fu_del2              =   7.4286337191137E-04
(PID.TID 0000.0001) %MON forcing_fv_max               =   1.4849948386351E-01
(PID.TID 0000.0001) %MON forcing_fv_min               =  -1.7835372189681E-01
(PID.TID 0000.0001) %MON forcing_fv_mean              =  -7.4252919403498E-03
(PID.TID 0000.0001) %MON forcing_fv_sd                =   4.1714625157981E-02
(PID.TID 0000.0001) %MON forcing_fv_del2              =   4.6870613924266E-04
(PID.TID 0000.0001) %MON trAdv_CFL_u_max              =   4.3404950830593E-02
(PID.TID 0000.0001) %MON trAdv_CFL_v_max              =   2.7176835111109E-02
(PID.TID 0000.0001) %MON trAdv_CFL_w_max              =   3.0071208589284E-02
(PID.TID 0000.0001) %MON advcfl_uvel_max              =   4.4692410457084E-02
(PID.TID 0000.0001) %MON advcfl_vvel_max              =   2.7568462035898E-02
(PID.TID 0000.0001) %MON advcfl_wvel_max              =   2.8290886389664E-02
(PID.TID 0000.0001) %MON advcfl_W_hf_max              =   3.1920541992492E-02
(PID.TID 0000.0001) %MON pe_b_mean                    =   5.5202668911350E-04
(PID.TID 0000.0001) %MON ke_max                       =   1.0842318235694E-02
(PID.TID 0000.0001) %MON ke_mean                      =   1.0322595160330E-04
(PID.TID 0000.0001) %MON ke_vol                       =   1.3226782436723E+18
(PID.TID 0000.0001) %MON vort_r_min                   =  -2.9610349875968E-07
(PID.TID 0000.0001) %MON vort_r_max                   =   4.0108360060532E-07
(PID.TID 0000.0001) %MON vort_a_mean                  =  -2.5274807034492E-05
(PID.TID 0000.0001) %MON vort_a_sd                    =   7.3604641346808E-05
(PID.TID 0000.0001) %MON vort_p_mean                  =  -3.1845655342152E-05
(PID.TID 0000.0001) %MON vort_p_sd                    =   1.3162510189817E-04
(PID.TID 0000.0001) %MON surfExpan_theta_mean         =  -2.8114762084711E-08
(PID.TID 0000.0001) %MON surfExpan_salt_mean          =   4.1404868550200E-08
(PID.TID 0000.0001) // =======================================================
(PID.TID 0000.0001) // End MONITOR dynamic field statistics
(PID.TID 0000.0001) // =======================================================
 EXTERNAL_FIELDS_LOAD,        66 : iP,iLd,i0,i1=    2    3    2    3 ; Wght=  0.3000000000  0.7000000000
 EXTERNAL_FIELDS_LOAD: (fu0,1),fu,fv= -1.4435E-02 -2.7199E-02 -2.3370E-02 -5.6953E-03
 EXTERNAL_FIELDS_LOAD: SST,SSS,Q,E-P= -2.8829E-01  3.4532E+01  2.2292E+02  8.8697E-06
DEBUG_STATS_RL:          Uvel (THERMODYNAMICS)  min= -1.24209300770629E-01
DEBUG_STATS_RL:          Uvel (THERMODYNAMICS)  max=  1.31610929455130E-01
DEBUG_STATS_RL:          Uvel (THERMODYNAMICS) mean=  5.53549711489009E-03
DEBUG_STATS_RL:          Uvel (THERMODYNAMICS) S.D.=  2.03965003064447E-02
DEBUG_STATS_RL:          Vvel (THERMODYNAMICS)  min= -9.82312308644149E-02
DEBUG_STATS_RL:          Vvel (THERMODYNAMICS)  max=  1.41897775618180E-01
DEBUG_STATS_RL:          Vvel (THERMODYNAMICS) mean=  5.34119627682525E-04
DEBUG_STATS_RL:          Vvel (THERMODYNAMICS) S.D.=  1.34091135969818E-02
DEBUG_STATS_RL:          Wvel (THERMODYNAMICS)  min= -7.15432599488021E-05
DEBUG_STATS_RL:          Wvel (THERMODYNAMICS)  max=  1.20001265270419E-04
DEBUG_STATS_RL:          Wvel (THERMODYNAMICS) mean= -1.26776375915612E-07
DEBUG_STATS_RL:          Wvel (THERMODYNAMICS) S.D.=  9.12667108962169E-06
DEBUG_STATS_RL:         Theta (THERMODYNAMICS)  min= -1.95732725614310E+00
DEBUG_STATS_RL:         Theta (THERMODYNAMICS)  max=  3.06870598377788E+01
DEBUG_STATS_RL:         Theta (THERMODYNAMICS) mean=  3.22028459221154E+00
DEBUG_STATS_RL:         Theta (THERMODYNAMICS) S.D.=  5.88030875882576E+00
DEBUG_STATS_RL:          Salt (THERMODYNAMICS)  min= -2.42861286636753E-17
DEBUG_STATS_RL:          Salt (THERMODYNAMICS)  max=  3.74673475346345E+01
DEBUG_STATS_RL:          Salt (THERMODYNAMICS) mean=  1.88447439770390E+01
DEBUG_STATS_RL:          Salt (THERMODYNAMICS) S.D.=  1.73002855178735E+01
DEBUG_STATS_RL:         GtNm1 (THERMODYNAMICS)  min= -5.10124924258812E-06
DEBUG_STATS_RL:         GtNm1 (THERMODYNAMICS)  max=  2.69311372394239E-06
DEBUG_STATS_RL:         GtNm1 (THERMODYNAMICS) mean=  3.45147145093170E-09
DEBUG_STATS_RL:         GtNm1 (THERMODYNAMICS) S.D.=  1.61028192336345E-07
DEBUG_STATS_RL:         GsNm1 (THERMODYNAMICS)  min= -5.33146791347543E-07
DEBUG_STATS_RL:         GsNm1 (THERMODYNAMICS)  max=  3.69297824388871E-07
DEBUG_STATS_RL:         GsNm1 (THERMODYNAMICS) mean= -3.69917464940435E-10
DEBUG_STATS_RL:         GsNm1 (THERMODYNAMICS) S.D.=  1.55188761364479E-08
DEBUG_STATS_RL:                EtaN (DYNAMICS)  min= -1.89483729251028E+00
DEBUG_STATS_RL:                EtaN (DYNAMICS)  max=  9.78686861158160E-01
DEBUG_STATS_RL:                EtaN (DYNAMICS) mean= -1.90851721804548E-01
DEBUG_STATS_RL:                EtaN (DYNAMICS) S.D.=  7.49645115737646E-01
DEBUG_STATS_RL:                Uvel (DYNAMICS)  min= -1.24209300770629E-01
DEBUG_STATS_RL:                Uvel (DYNAMICS)  max=  1.31610929455130E-01
DEBUG_STATS_RL:                Uvel (DYNAMICS) mean=  5.53549711489009E-03
DEBUG_STATS_RL:                Uvel (DYNAMICS) S.D.=  2.03965003064447E-02
DEBUG_STATS_RL:                Vvel (DYNAMICS)  min= -9.82312308644149E-02
DEBUG_STATS_RL:                Vvel (DYNAMICS)  max=  1.41897775618180E-01
DEBUG_STATS_RL:                Vvel (DYNAMICS) mean=  5.34119627682525E-04
DEBUG_STATS_RL:                Vvel (DYNAMICS) S.D.=  1.34091135969818E-02
DEBUG_STATS_RL:                Wvel (DYNAMICS)  min= -7.15432599488021E-05
DEBUG_STATS_RL:                Wvel (DYNAMICS)  max=  1.20001265270419E-04
DEBUG_STATS_RL:                Wvel (DYNAMICS) mean= -1.26776375915612E-07
DEBUG_STATS_RL:                Wvel (DYNAMICS) S.D.=  9.12667108962169E-06
DEBUG_STATS_RL:               Theta (DYNAMICS)  min= -1.95732725614310E+00
DEBUG_STATS_RL:               Theta (DYNAMICS)  max=  3.06870598377788E+01
DEBUG_STATS_RL:               Theta (DYNAMICS) mean=  3.22028459221154E+00
DEBUG_STATS_RL:               Theta (DYNAMICS) S.D.=  5.88030875882576E+00
DEBUG_STATS_RL:                Salt (DYNAMICS)  min= -2.42861286636753E-17
DEBUG_STATS_RL:                Salt (DYNAMICS)  max=  3.74673475346345E+01
DEBUG_STATS_RL:                Salt (DYNAMICS) mean=  1.88447439770390E+01
DEBUG_STATS_RL:                Salt (DYNAMICS) S.D.=  1.73002855178735E+01
DEBUG_STATS_RL:                  Gu (DYNAMICS)  min= -1.23948685589512E-01
DEBUG_STATS_RL:                  Gu (DYNAMICS)  max=  1.34978940521009E-01
DEBUG_STATS_RL:                  Gu (DYNAMICS) mean=  5.56608622764661E-03
DEBUG_STATS_RL:                  Gu (DYNAMICS) S.D.=  2.09948033088349E-02
DEBUG_STATS_RL:                  Gv (DYNAMICS)  min= -1.07136195162621E-01
DEBUG_STATS_RL:                  Gv (DYNAMICS)  max=  1.42508643444621E-01
DEBUG_STATS_RL:                  Gv (DYNAMICS) mean=  3.06642560556438E-03
DEBUG_STATS_RL:                  Gv (DYNAMICS) S.D.=  1.45404426227935E-02
DEBUG_STATS_RL:               GuNm1 (DYNAMICS)  min= -9.93704282714443E-06
DEBUG_STATS_RL:               GuNm1 (DYNAMICS)  max=  9.23193034204579E-06
DEBUG_STATS_RL:               GuNm1 (DYNAMICS) mean=  3.93434586553727E-09
DEBUG_STATS_RL:               GuNm1 (DYNAMICS) S.D.=  1.20058988351358E-06
DEBUG_STATS_RL:               GvNm1 (DYNAMICS)  min= -1.00330324672894E-05
DEBUG_STATS_RL:               GvNm1 (DYNAMICS)  max=  1.57113025538966E-05
DEBUG_STATS_RL:               GvNm1 (DYNAMICS) mean=  7.35476660258741E-07
DEBUG_STATS_RL:               GvNm1 (DYNAMICS) S.D.=  2.63569139524101E-06
DEBUG_STATS_RL:               GtNm1 (DYNAMICS)  min= -5.10124924258812E-06
DEBUG_STATS_RL:               GtNm1 (DYNAMICS)  max=  2.69311372394239E-06
DEBUG_STATS_RL:               GtNm1 (DYNAMICS) mean=  3.45147145093170E-09
DEBUG_STATS_RL:               GtNm1 (DYNAMICS) S.D.=  1.61028192336345E-07
DEBUG_STATS_RL:               GsNm1 (DYNAMICS)  min= -5.33146791347543E-07
DEBUG_STATS_RL:               GsNm1 (DYNAMICS)  max=  3.69297824388871E-07
DEBUG_STATS_RL:               GsNm1 (DYNAMICS) mean= -3.69917464940435E-10
DEBUG_STATS_RL:               GsNm1 (DYNAMICS) S.D.=  1.55188761364479E-08
DEBUG_STATS_RL:    cg2d_b (SOLVE_FOR_PRESSURE)  min= -2.14804793382744E+04
DEBUG_STATS_RL:    cg2d_b (SOLVE_FOR_PRESSURE)  max=  2.42110739977997E+04
DEBUG_STATS_RL:    cg2d_b (SOLVE_FOR_PRESSURE) mean=  4.67148684335467E+00
DEBUG_STATS_RL:    cg2d_b (SOLVE_FOR_PRESSURE) S.D.=  3.92870732732438E+03
 cg2d: Sum(rhs),rhsMax =   4.46675436345698E-01  1.59024816352751E+00
(PID.TID 0000.0001)  cg2d: iter=     1 ; resid.=  6.81398541033688E-02
(PID.TID 0000.0001)  cg2d: iter=     2 ; resid.=  3.78488698919598E-02
(PID.TID 0000.0001)  cg2d: iter=     3 ; resid.=  3.22956729270307E-02
(PID.TID 0000.0001)  cg2d: iter=     4 ; resid.=  3.35978030401253E-02
(PID.TID 0000.0001)  cg2d: iter=     5 ; resid.=  3.62896991334619E-02
(PID.TID 0000.0001)  cg2d: iter=     6 ; resid.=  3.17689215135667E-02
(PID.TID 0000.0001)  cg2d: iter=     7 ; resid.=  2.42283117578540E-02
(PID.TID 0000.0001)  cg2d: iter=     8 ; resid.=  1.71337598724667E-02
(PID.TID 0000.0001)  cg2d: iter=     9 ; resid.=  1.35631097758462E-02
(PID.TID 0000.0001)  cg2d: iter=    10 ; resid.=  1.11511549585736E-02
(PID.TID 0000.0001)  cg2d: iter=    11 ; resid.=  8.73663692001562E-03
(PID.TID 0000.0001)  cg2d: iter=    12 ; resid.=  6.79182100469298E-03
(PID.TID 0000.0001)  cg2d: iter=    13 ; resid.=  5.30753672860119E-03
(PID.TID 0000.0001)  cg2d: iter=    14 ; resid.=  4.21728848948626E-03
(PID.TID 0000.0001)  cg2d: iter=    15 ; resid.=  3.64881866657992E-03
(PID.TID 0000.0001)  cg2d: iter=    16 ; resid.=  3.12254548114611E-03
(PID.TID 0000.0001)  cg2d: iter=    17 ; resid.=  2.61775365558387E-03
(PID.TID 0000.0001)  cg2d: iter=    18 ; resid.=  2.30494282229843E-03
(PID.TID 0000.0001)  cg2d: iter=    19 ; resid.=  2.04272694925205E-03
(PID.TID 0000.0001)  cg2d: iter=    20 ; resid.=  1.81059813159043E-03
(PID.TID 0000.0001)  cg2d: iter=    21 ; resid.=  1.53124672202657E-03
(PID.TID 0000.0001)  cg2d: iter=    22 ; resid.=  1.28805965564334E-03
(PID.TID 0000.0001)  cg2d: iter=    23 ; resid.=  1.03587432628689E-03
(PID.TID 0000.0001)  cg2d: iter=    24 ; resid.=  8.42894333306830E-04
(PID.TID 0000.0001)  cg2d: iter=    25 ; resid.=  7.22905300615765E-04
(PID.TID 0000.0001)  cg2d: iter=    26 ; resid.=  5.48985863372276E-04
(PID.TID 0000.0001)  cg2d: iter=    27 ; resid.=  4.54905965564463E-04
(PID.TID 0000.0001)  cg2d: iter=    28 ; resid.=  3.79317714194065E-04
(PID.TID 0000.0001)  cg2d: iter=    29 ; resid.=  3.14792755726723E-04
(PID.TID 0000.0001)  cg2d: iter=    30 ; resid.=  2.53553829130131E-04
(PID.TID 0000.0001)  cg2d: iter=    31 ; resid.=  2.31291483855095E-04
(PID.TID 0000.0001)  cg2d: iter=    32 ; resid.=  1.98198888714191E-04
(PID.TID 0000.0001)  cg2d: iter=    33 ; resid.=  1.55009441095051E-04
(PID.TID 0000.0001)  cg2d: iter=    34 ; resid.=  1.24602945317976E-04
(PID.TID 0000.0001)  cg2d: iter=    35 ; resid.=  9.62384665767728E-05
(PID.TID 0000.0001)  cg2d: iter=    36 ; resid.=  8.33013897624473E-05
(PID.TID 0000.0001)  cg2d: iter=    37 ; resid.=  7.12143720544432E-05
(PID.TID 0000.0001)  cg2d: iter=    38 ; resid.=  6.40470255817147E-05
(PID.TID 0000.0001)  cg2d: iter=    39 ; resid.=  5.86538453419020E-05
(PID.TID 0000.0001)  cg2d: iter=    40 ; resid.=  5.11508130218076E-05
(PID.TID 0000.0001)  cg2d: iter=    41 ; resid.=  3.79780374974749E-05
(PID.TID 0000.0001)  cg2d: iter=    42 ; resid.=  3.08710092959183E-05
(PID.TID 0000.0001)  cg2d: iter=    43 ; resid.=  2.90263419893369E-05
(PID.TID 0000.0001)  cg2d: iter=    44 ; resid.=  2.48005017676682E-05
(PID.TID 0000.0001)  cg2d: iter=    45 ; resid.=  1.86793095627406E-05
(PID.TID 0000.0001)  cg2d: iter=    46 ; resid.=  1.41292676535543E-05
(PID.TID 0000.0001)  cg2d: iter=    47 ; resid.=  1.10066433021138E-05
(PID.TID 0000.0001)  cg2d: iter=    48 ; resid.=  9.46578390851834E-06
(PID.TID 0000.0001)  cg2d: iter=    49 ; resid.=  9.08113217108434E-06
(PID.TID 0000.0001)  cg2d: iter=    50 ; resid.=  8.13719084675924E-06
(PID.TID 0000.0001)  cg2d: iter=    51 ; resid.=  7.04397163686373E-06
(PID.TID 0000.0001)  cg2d: iter=    52 ; resid.=  5.70973892692849E-06
(PID.TID 0000.0001)  cg2d: iter=    53 ; resid.=  4.98367898747177E-06
(PID.TID 0000.0001)  cg2d: iter=    54 ; resid.=  4.45165033202941E-06
(PID.TID 0000.0001)  cg2d: iter=    55 ; resid.=  3.66082272253407E-06
(PID.TID 0000.0001)  cg2d: iter=    56 ; resid.=  2.79169173818063E-06
(PID.TID 0000.0001)  cg2d: iter=    57 ; resid.=  2.21170203405886E-06
(PID.TID 0000.0001)  cg2d: iter=    58 ; resid.=  1.96267044377603E-06
(PID.TID 0000.0001)  cg2d: iter=    59 ; resid.=  1.63058192388767E-06
(PID.TID 0000.0001)  cg2d: iter=    60 ; resid.=  1.21166389117693E-06
(PID.TID 0000.0001)  cg2d: iter=    61 ; resid.=  9.07616765836396E-07
(PID.TID 0000.0001)  cg2d: iter=    62 ; resid.=  7.18995054509769E-07
(PID.TID 0000.0001)  cg2d: iter=    63 ; resid.=  5.71521281553176E-07
(PID.TID 0000.0001)  cg2d: iter=    64 ; resid.=  4.50336909594794E-07
(PID.TID 0000.0001)  cg2d: iter=    65 ; resid.=  3.69527083167489E-07
(PID.TID 0000.0001)  cg2d: iter=    66 ; resid.=  3.15831984339059E-07
(PID.TID 0000.0001)  cg2d: iter=    67 ; resid.=  2.63830485132697E-07
(PID.TID 0000.0001)  cg2d: iter=    68 ; resid.=  2.30586897279124E-07
(PID.TID 0000.0001)  cg2d: iter=    69 ; resid.=  1.99596746591423E-07
(PID.TID 0000.0001)  cg2d: iter=    70 ; resid.=  1.71380740684497E-07
(PID.TID 0000.0001)  cg2d: iter=    71 ; resid.=  1.40931006888361E-07
(PID.TID 0000.0001)  cg2d: iter=    72 ; resid.=  1.13248027245865E-07
(PID.TID 0000.0001)  cg2d: iter=    73 ; resid.=  9.25536400131309E-08
(PID.TID 0000.0001)  cg2d: iter=    74 ; resid.=  7.81020642864082E-08
(PID.TID 0000.0001)  cg2d: iter=    75 ; resid.=  6.51593745065175E-08
(PID.TID 0000.0001)  cg2d: iter=    76 ; resid.=  5.56125708791710E-08
(PID.TID 0000.0001)  cg2d: iter=    77 ; resid.=  4.77414933635088E-08
(PID.TID 0000.0001)  cg2d: iter=    78 ; resid.=  3.90384046605667E-08
(PID.TID 0000.0001)  cg2d: iter=    79 ; resid.=  3.31162068722300E-08
(PID.TID 0000.0001)  cg2d: iter=    80 ; resid.=  2.84723943062578E-08
(PID.TID 0000.0001)  cg2d: iter=    81 ; resid.=  2.25141793677465E-08
(PID.TID 0000.0001)  cg2d: iter=    82 ; resid.=  1.72545593139272E-08
(PID.TID 0000.0001)  cg2d: iter=    83 ; resid.=  1.25254866804856E-08
(PID.TID 0000.0001)  cg2d: iter=    84 ; resid.=  9.86978674965203E-09
(PID.TID 0000.0001)  cg2d: iter=    85 ; resid.=  6.98720771998091E-09
(PID.TID 0000.0001)  cg2d: iter=    86 ; resid.=  4.88453550598718E-09
(PID.TID 0000.0001)  cg2d: iter=    87 ; resid.=  3.93837686721162E-09
(PID.TID 0000.0001)  cg2d: iter=    88 ; resid.=  3.08773032258287E-09
(PID.TID 0000.0001)  cg2d: iter=    89 ; resid.=  2.41145696411823E-09
(PID.TID 0000.0001)  cg2d: iter=    90 ; resid.=  2.05688631240809E-09
(PID.TID 0000.0001)  cg2d: iter=    91 ; resid.=  1.81152984637512E-09
(PID.TID 0000.0001)  cg2d: iter=    92 ; resid.=  1.49835389418483E-09
(PID.TID 0000.0001)  cg2d: iter=    93 ; resid.=  1.21583025643663E-09
(PID.TID 0000.0001)  cg2d: iter=    94 ; resid.=  9.73947663435719E-10
(PID.TID 0000.0001)  cg2d: iter=    95 ; resid.=  7.06911745236771E-10
(PID.TID 0000.0001)  cg2d: iter=    96 ; resid.=  5.62894489862107E-10
(PID.TID 0000.0001)  cg2d: iter=    97 ; resid.=  4.67564715025015E-10
(PID.TID 0000.0001)  cg2d: iter=    98 ; resid.=  4.07619195139723E-10
(PID.TID 0000.0001)  cg2d: iter=    99 ; resid.=  3.50046996174661E-10
(PID.TID 0000.0001)  cg2d: iter=   100 ; resid.=  2.84376646473200E-10
(PID.TID 0000.0001)  cg2d: iter=   101 ; resid.=  2.41560099322442E-10
(PID.TID 0000.0001)  cg2d: iter=   102 ; resid.=  1.99446352053186E-10
(PID.TID 0000.0001)  cg2d: iter=   103 ; resid.=  1.56213684644218E-10
(PID.TID 0000.0001)  cg2d: iter=   104 ; resid.=  1.11085544373537E-10
(PID.TID 0000.0001)  cg2d: iter=   105 ; resid.=  8.43079463543023E-11
(PID.TID 0000.0001)  cg2d: iter=   106 ; resid.=  7.26404440363947E-11
(PID.TID 0000.0001)  cg2d: iter=   107 ; resid.=  5.37813835456902E-11
(PID.TID 0000.0001)  cg2d: iter=   108 ; resid.=  3.90784603131790E-11
(PID.TID 0000.0001)  cg2d: iter=   109 ; resid.=  2.95509752955681E-11
(PID.TID 0000.0001)  cg2d: iter=   110 ; resid.=  2.08549244473397E-11
(PID.TID 0000.0001)  cg2d: iter=   111 ; resid.=  1.48909414655606E-11
(PID.TID 0000.0001)  cg2d: iter=   112 ; resid.=  1.08009856721958E-11
(PID.TID 0000.0001)  cg2d: iter=   113 ; resid.=  7.41264357119251E-12
(PID.TID 0000.0001)  cg2d: iter=   114 ; resid.=  5.54272027462803E-12
(PID.TID 0000.0001)  cg2d: iter=   115 ; resid.=  4.11041713862634E-12
(PID.TID 0000.0001)  cg2d: iter=   116 ; resid.=  2.99565075234504E-12
(PID.TID 0000.0001)  cg2d: iter=   117 ; resid.=  2.33107235168627E-12
(PID.TID 0000.0001)  cg2d: iter=   118 ; resid.=  1.72984324648823E-12
(PID.TID 0000.0001)  cg2d: iter=   119 ; resid.=  1.26790702438278E-12
(PID.TID 0000.0001)  cg2d: iter=   120 ; resid.=  9.40768166719901E-13
(PID.TID 0000.0001)  cg2d: iter=   121 ; resid.=  6.72765371673956E-13
(PID.TID 0000.0001)  cg2d: iter=   122 ; resid.=  5.09906566951958E-13
(PID.TID 0000.0001)  cg2d: iter=   123 ; resid.=  3.79041866813009E-13
(PID.TID 0000.0001)  cg2d: iter=   124 ; resid.=  3.13159174021690E-13
(PID.TID 0000.0001)  cg2d: iter=   125 ; resid.=  2.46048678703468E-13
(PID.TID 0000.0001)  cg2d: iter=   126 ; resid.=  1.82522580178802E-13
(PID.TID 0000.0001)  cg2d: iter=   127 ; resid.=  1.40770410503308E-13
(PID.TID 0000.0001)  cg2d: iter=   128 ; resid.=  1.05304695555645E-13
(PID.TID 0000.0001)  cg2d: iter=   129 ; resid.=  7.08364230401654E-14
DEBUG_STATS_RL:    cg2d_x (SOLVE_FOR_PRESSURE)  min= -1.85883625029430E+01
DEBUG_STATS_RL:    cg2d_x (SOLVE_FOR_PRESSURE)  max=  9.59103860310174E+00
DEBUG_STATS_RL:    cg2d_x (SOLVE_FOR_PRESSURE) mean= -1.87004737915943E+00
DEBUG_STATS_RL:    cg2d_x (SOLVE_FOR_PRESSURE) S.D.=  7.33167725566795E+00
(PID.TID 0000.0001)      cg2d_init_res =   2.51873318648729E-01
(PID.TID 0000.0001)      cg2d_iters(min,last) =      -1     129
(PID.TID 0000.0001)      cg2d_last_res =   7.08364230401654E-14
(PID.TID 0000.0001) // =======================================================
(PID.TID 0000.0001) // Begin MONITOR dynamic field statistics
(PID.TID 0000.0001) // =======================================================
(PID.TID 0000.0001) %MON time_tsnumber                =                    67
(PID.TID 0000.0001) %MON time_secondsf                =   5.7888000000000E+06
(PID.TID 0000.0001) %MON dynstat_eta_max              =   9.7767977605528E-01
(PID.TID 0000.0001) %MON dynstat_eta_min              =  -1.8948381756313E+00
(PID.TID 0000.0001) %MON dynstat_eta_mean             =  -4.8741172757956E-03
(PID.TID 0000.0001) %MON dynstat_eta_sd               =   6.5391831894445E-01
(PID.TID 0000.0001) %MON dynstat_eta_del2             =   2.4215574566171E-03
(PID.TID 0000.0001) %MON dynstat_uvel_max             =   1.3643167139890E-01
(PID.TID 0000.0001) %MON dynstat_uvel_min             =  -1.2385474879565E-01
(PID.TID 0000.0001) %MON dynstat_uvel_mean            =   2.2029169045147E-03
(PID.TID 0000.0001) %MON dynstat_uvel_sd              =   1.2614722569467E-02
(PID.TID 0000.0001) %MON dynstat_uvel_del2            =   7.8658593884030E-05
(PID.TID 0000.0001) %MON dynstat_vvel_max             =   1.4298886838237E-01
(PID.TID 0000.0001) %MON dynstat_vvel_min             =  -9.6619887873893E-02
(PID.TID 0000.0001) %MON dynstat_vvel_mean            =   2.5973574221592E-05
(PID.TID 0000.0001) %MON dynstat_vvel_sd              =   8.1647627718762E-03
(PID.TID 0000.0001) %MON dynstat_vvel_del2            =   7.1524962957593E-05
(PID.TID 0000.0001) %MON dynstat_wvel_max             =   1.2637280477273E-04
(PID.TID 0000.0001) %MON dynstat_wvel_min             =  -7.3366039431831E-05
(PID.TID 0000.0001) %MON dynstat_wvel_mean            =  -1.8221664961545E-22
(PID.TID 0000.0001) %MON dynstat_wvel_sd              =   1.0206404684484E-05
(PID.TID 0000.0001) %MON dynstat_wvel_del2            =   1.0464054713221E-07
(PID.TID 0000.0001) %MON dynstat_theta_max            =   3.0687059837779E+01
(PID.TID 0000.0001) %MON dynstat_theta_min            =  -1.9573272561431E+00
(PID.TID 0000.0001) %MON dynstat_theta_mean           =   3.6236702508270E+00
(PID.TID 0000.0001) %MON dynstat_theta_sd             =   4.4250804831112E+00
(PID.TID 0000.0001) %MON dynstat_theta_del2           =   4.8828682432237E-03
(PID.TID 0000.0001) %MON dynstat_salt_max             =   3.7467347534634E+01
(PID.TID 0000.0001) %MON dynstat_salt_min             =   2.9881994204239E+01
(PID.TID 0000.0001) %MON dynstat_salt_mean            =   3.4718005814714E+01
(PID.TID 0000.0001) %MON dynstat_salt_sd              =   2.9650916460706E-01
(PID.TID 0000.0001) %MON dynstat_salt_del2            =   9.8822435738522E-04
(PID.TID 0000.0001) %MON dynstat_sst_max              =   3.0687059837779E+01
(PID.TID 0000.0001) %MON dynstat_sst_min              =  -1.9573272561431E+00
(PID.TID 0000.0001) %MON dynstat_sst_mean             =   1.9020187006450E+01
(PID.TID 0000.0001) %MON dynstat_sst_sd               =   9.0954876700972E+00
(PID.TID 0000.0001) %MON dynstat_sst_del2             =   2.8233186745852E-02
(PID.TID 0000.0001) %MON dynstat_sss_max              =   3.7452477120405E+01
(PID.TID 0000.0001) %MON dynstat_sss_min              =   2.9881994204239E+01
(PID.TID 0000.0001) %MON dynstat_sss_mean             =   3.4838092730520E+01
(PID.TID 0000.0001) %MON dynstat_sss_sd               =   9.8274363352458E-01
(PID.TID 0000.0001) %MON dynstat_sss_del2             =   8.0461001975187E-03
(PID.TID 0000.0001) %MON forcing_qnet_max             =   2.9969105529785E+02
(PID.TID 0000.0001) %MON forcing_qnet_min             =  -1.6654910430908E+02
(PID.TID 0000.0001) %MON forcing_qnet_mean            =  -9.2751214867842E+00
(PID.TID 0000.0001) %MON forcing_qnet_sd              =   5.3417334292331E+01
(PID.TID 0000.0001) %MON forcing_qnet_del2            =   8.6450663547171E-01
(PID.TID 0000.0001) %MON forcing_qsw_max              =   0.0000000000000E+00
(PID.TID 0000.0001) %MON forcing_qsw_min              =   0.0000000000000E+00
(PID.TID 0000.0001) %MON forcing_qsw_mean             =   0.0000000000000E+00
(PID.TID 0000.0001) %MON forcing_qsw_sd               =   0.0000000000000E+00
(PID.TID 0000.0001) %MON forcing_qsw_del2             =   0.0000000000000E+00
(PID.TID 0000.0001) %MON forcing_empmr_max            =   6.9160628868303E-05
(PID.TID 0000.0001) %MON forcing_empmr_min            =  -7.9671801245240E-05
(PID.TID 0000.0001) %MON forcing_empmr_mean           =   6.6852043154790E-07
(PID.TID 0000.0001) %MON forcing_empmr_sd             =   2.6572386265845E-05
(PID.TID 0000.0001) %MON forcing_empmr_del2           =   3.5744101537631E-07
(PID.TID 0000.0001) %MON forcing_fu_max               =   3.4007865488529E-01
(PID.TID 0000.0001) %MON forcing_fu_min               =  -3.3120734989643E-01
(PID.TID 0000.0001) %MON forcing_fu_mean              =   1.9608932995262E-02
(PID.TID 0000.0001) %MON forcing_fu_sd                =   9.7551455334173E-02
(PID.TID 0000.0001) %MON forcing_fu_del2              =   7.5067710575234E-04
(PID.TID 0000.0001) %MON forcing_fv_max               =   1.4891323596239E-01
(PID.TID 0000.0001) %MON forcing_fv_min               =  -1.7985151261091E-01
(PID.TID 0000.0001) %MON forcing_fv_mean              =  -7.4357202903193E-03
(PID.TID 0000.0001) %MON forcing_fv_sd                =   4.1731256114148E-02
(PID.TID 0000.0001) %MON forcing_fv_del2              =   4.7036402229304E-04
(PID.TID 0000.0001) %MON trAdv_CFL_u_max              =   4.4701487805294E-02
(PID.TID 0000.0001) %MON trAdv_CFL_v_max              =   2.7456120015998E-02
(PID.TID 0000.0001) %MON trAdv_CFL_w_max              =   2.9996685312137E-02
(PID.TID 0000.0001) %MON advcfl_uvel_max              =   4.5688553887581E-02
(PID.TID 0000.0001) %MON advcfl_vvel_max              =   2.7780443860955E-02
(PID.TID 0000.0001) %MON advcfl_wvel_max              =   2.9914000910586E-02
(PID.TID 0000.0001) %MON advcfl_W_hf_max              =   3.2113559801070E-02
(PID.TID 0000.0001) %MON pe_b_mean                    =   5.4720787117860E-04
(PID.TID 0000.0001) %MON ke_max                       =   1.0853104274047E-02
(PID.TID 0000.0001) %MON ke_mean                      =   1.0442884739675E-04
(PID.TID 0000.0001) %MON ke_vol                       =   1.3226782436723E+18
(PID.TID 0000.0001) %MON vort_r_min                   =  -2.9430918802489E-07
(PID.TID 0000.0001) %MON vort_r_max                   =   4.0308065903593E-07
(PID.TID 0000.0001) %MON vort_a_mean                  =  -2.5274807037989E-05
(PID.TID 0000.0001) %MON vort_a_sd                    =   7.3604641519805E-05
(PID.TID 0000.0001) %MON vort_p_mean                  =  -3.1845655346559E-05
(PID.TID 0000.0001) %MON vort_p_sd                    =   1.3162508592518E-04
(PID.TID 0000.0001) %MON surfExpan_theta_mean         =  -4.7448690788973E-08
(PID.TID 0000.0001) %MON surfExpan_salt_mean          =   4.9080736278919E-08
(PID.TID 0000.0001) // =======================================================
(PID.TID 0000.0001) // End MONITOR dynamic field statistics
(PID.TID 0000.0001) // =======================================================
 EXTERNAL_FIELDS_LOAD,        67 : iP,iLd,i0,i1=    2    3    2    3 ; Wght=  0.2666666667  0.7333333333
 EXTERNAL_FIELDS_LOAD: (fu0,1),fu,fv= -1.4435E-02 -2.7199E-02 -2.3795E-02 -5.1267E-03
 EXTERNAL_FIELDS_LOAD: SST,SSS,Q,E-P= -2.7669E-01  3.4537E+01  2.2209E+02  8.8932E-06
DEBUG_STATS_RL:          Uvel (THERMODYNAMICS)  min= -1.23854748795655E-01
DEBUG_STATS_RL:          Uvel (THERMODYNAMICS)  max=  1.36431671398904E-01
DEBUG_STATS_RL:          Uvel (THERMODYNAMICS) mean=  5.61981799486943E-03
DEBUG_STATS_RL:          Uvel (THERMODYNAMICS) S.D.=  2.06244458452972E-02
DEBUG_STATS_RL:          Vvel (THERMODYNAMICS)  min= -9.66198878738929E-02
DEBUG_STATS_RL:          Vvel (THERMODYNAMICS)  max=  1.42988868382366E-01
DEBUG_STATS_RL:          Vvel (THERMODYNAMICS) mean=  5.28431083392525E-04
DEBUG_STATS_RL:          Vvel (THERMODYNAMICS) S.D.=  1.33734035116571E-02
DEBUG_STATS_RL:          Wvel (THERMODYNAMICS)  min= -7.33660394318314E-05
DEBUG_STATS_RL:          Wvel (THERMODYNAMICS)  max=  1.26372804772729E-04
DEBUG_STATS_RL:          Wvel (THERMODYNAMICS) mean= -1.23251693158924E-07
DEBUG_STATS_RL:          Wvel (THERMODYNAMICS) S.D.=  9.05889115742373E-06
DEBUG_STATS_RL:         Theta (THERMODYNAMICS)  min= -1.95574870131396E+00
DEBUG_STATS_RL:         Theta (THERMODYNAMICS)  max=  3.07143809053737E+01
DEBUG_STATS_RL:         Theta (THERMODYNAMICS) mean=  3.22043792003948E+00
DEBUG_STATS_RL:         Theta (THERMODYNAMICS) S.D.=  5.88080883324326E+00
DEBUG_STATS_RL:          Salt (THERMODYNAMICS)  min= -2.42861286636753E-17
DEBUG_STATS_RL:          Salt (THERMODYNAMICS)  max=  3.74670789938723E+01
DEBUG_STATS_RL:          Salt (THERMODYNAMICS) mean=  1.88447346165087E+01
DEBUG_STATS_RL:          Salt (THERMODYNAMICS) S.D.=  1.73002774904493E+01
DEBUG_STATS_RL:         GtNm1 (THERMODYNAMICS)  min= -5.00548059440338E-06
DEBUG_STATS_RL:         GtNm1 (THERMODYNAMICS)  max=  2.62951660683206E-06
DEBUG_STATS_RL:         GtNm1 (THERMODYNAMICS) mean=  3.50897117564654E-09
DEBUG_STATS_RL:         GtNm1 (THERMODYNAMICS) S.D.=  1.57613420683315E-07
DEBUG_STATS_RL:         GsNm1 (THERMODYNAMICS)  min= -5.61304540049940E-07
DEBUG_STATS_RL:         GsNm1 (THERMODYNAMICS)  max=  3.87654852311006E-07
DEBUG_STATS_RL:         GsNm1 (THERMODYNAMICS) mean= -3.28145359415520E-10
DEBUG_STATS_RL:         GsNm1 (THERMODYNAMICS) S.D.=  1.51390710124891E-08
DEBUG_STATS_RL:                EtaN (DYNAMICS)  min= -1.89483817563131E+00
DEBUG_STATS_RL:                EtaN (DYNAMICS)  max=  9.77679776055277E-01
DEBUG_STATS_RL:                EtaN (DYNAMICS) mean= -1.90626644154886E-01
DEBUG_STATS_RL:                EtaN (DYNAMICS) S.D.=  7.47367712096632E-01
DEBUG_STATS_RL:                Uvel (DYNAMICS)  min= -1.23854748795655E-01
DEBUG_STATS_RL:                Uvel (DYNAMICS)  max=  1.36431671398904E-01
DEBUG_STATS_RL:                Uvel (DYNAMICS) mean=  5.61981799486943E-03
DEBUG_STATS_RL:                Uvel (DYNAMICS) S.D.=  2.06244458452972E-02
DEBUG_STATS_RL:                Vvel (DYNAMICS)  min= -9.66198878738929E-02
DEBUG_STATS_RL:                Vvel (DYNAMICS)  max=  1.42988868382366E-01
DEBUG_STATS_RL:                Vvel (DYNAMICS) mean=  5.28431083392525E-04
DEBUG_STATS_RL:                Vvel (DYNAMICS) S.D.=  1.33734035116571E-02
DEBUG_STATS_RL:                Wvel (DYNAMICS)  min= -7.33660394318314E-05
DEBUG_STATS_RL:                Wvel (DYNAMICS)  max=  1.26372804772729E-04
DEBUG_STATS_RL:                Wvel (DYNAMICS) mean= -1.23251693158924E-07
DEBUG_STATS_RL:                Wvel (DYNAMICS) S.D.=  9.05889115742373E-06
DEBUG_STATS_RL:               Theta (DYNAMICS)  min= -1.95574870131396E+00
DEBUG_STATS_RL:               Theta (DYNAMICS)  max=  3.07143809053737E+01
DEBUG_STATS_RL:               Theta (DYNAMICS) mean=  3.22043792003948E+00
DEBUG_STATS_RL:               Theta (DYNAMICS) S.D.=  5.88080883324326E+00
DEBUG_STATS_RL:                Salt (DYNAMICS)  min= -2.42861286636753E-17
DEBUG_STATS_RL:                Salt (DYNAMICS)  max=  3.74670789938723E+01
DEBUG_STATS_RL:                Salt (DYNAMICS) mean=  1.88447346165087E+01
DEBUG_STATS_RL:                Salt (DYNAMICS) S.D.=  1.73002774904493E+01
DEBUG_STATS_RL:                  Gu (DYNAMICS)  min= -1.23573282069282E-01
DEBUG_STATS_RL:                  Gu (DYNAMICS)  max=  1.39008599814686E-01
DEBUG_STATS_RL:                  Gu (DYNAMICS) mean=  5.64831217248382E-03
DEBUG_STATS_RL:                  Gu (DYNAMICS) S.D.=  2.12383563492777E-02
DEBUG_STATS_RL:                  Gv (DYNAMICS)  min= -1.04586946970543E-01
DEBUG_STATS_RL:                  Gv (DYNAMICS)  max=  1.43504019406949E-01
DEBUG_STATS_RL:                  Gv (DYNAMICS) mean=  3.07987087984764E-03
DEBUG_STATS_RL:                  Gv (DYNAMICS) S.D.=  1.45050349160051E-02
DEBUG_STATS_RL:               GuNm1 (DYNAMICS)  min= -9.95247614182294E-06
DEBUG_STATS_RL:               GuNm1 (DYNAMICS)  max=  9.22541868181837E-06
DEBUG_STATS_RL:               GuNm1 (DYNAMICS) mean=  4.32192419250239E-09
DEBUG_STATS_RL:               GuNm1 (DYNAMICS) S.D.=  1.20201167200507E-06
DEBUG_STATS_RL:               GvNm1 (DYNAMICS)  min= -1.00355162394219E-05
DEBUG_STATS_RL:               GvNm1 (DYNAMICS)  max=  1.56945683630875E-05
DEBUG_STATS_RL:               GvNm1 (DYNAMICS) mean=  7.35250148290930E-07
DEBUG_STATS_RL:               GvNm1 (DYNAMICS) S.D.=  2.63377306298848E-06
DEBUG_STATS_RL:               GtNm1 (DYNAMICS)  min= -5.00548059440338E-06
DEBUG_STATS_RL:               GtNm1 (DYNAMICS)  max=  2.62951660683206E-06
DEBUG_STATS_RL:               GtNm1 (DYNAMICS) mean=  3.50897117564654E-09
DEBUG_STATS_RL:               GtNm1 (DYNAMICS) S.D.=  1.57613420683315E-07
DEBUG_STATS_RL:               GsNm1 (DYNAMICS)  min= -5.61304540049940E-07
DEBUG_STATS_RL:               GsNm1 (DYNAMICS)  max=  3.87654852311006E-07
DEBUG_STATS_RL:               GsNm1 (DYNAMICS) mean= -3.28145359415520E-10
DEBUG_STATS_RL:               GsNm1 (DYNAMICS) S.D.=  1.51390710124891E-08
DEBUG_STATS_RL:    cg2d_b (SOLVE_FOR_PRESSURE)  min= -2.19819539648688E+04
DEBUG_STATS_RL:    cg2d_b (SOLVE_FOR_PRESSURE)  max=  2.40738441692771E+04
DEBUG_STATS_RL:    cg2d_b (SOLVE_FOR_PRESSURE) mean=  4.72392642228176E+00
DEBUG_STATS_RL:    cg2d_b (SOLVE_FOR_PRESSURE) S.D.=  3.92656787730719E+03
 cg2d: Sum(rhs),rhsMax =   4.54264370521228E-01  1.58123454096748E+00
(PID.TID 0000.0001)  cg2d: iter=     1 ; resid.=  6.95934588365683E-02
(PID.TID 0000.0001)  cg2d: iter=     2 ; resid.=  3.99763028793463E-02
(PID.TID 0000.0001)  cg2d: iter=     3 ; resid.=  3.69507267412347E-02
(PID.TID 0000.0001)  cg2d: iter=     4 ; resid.=  3.96799801333997E-02
(PID.TID 0000.0001)  cg2d: iter=     5 ; resid.=  4.18581147246837E-02
(PID.TID 0000.0001)  cg2d: iter=     6 ; resid.=  3.52393395827106E-02
(PID.TID 0000.0001)  cg2d: iter=     7 ; resid.=  2.63301789858911E-02
(PID.TID 0000.0001)  cg2d: iter=     8 ; resid.=  1.87045574084951E-02
(PID.TID 0000.0001)  cg2d: iter=     9 ; resid.=  1.47809562399100E-02
(PID.TID 0000.0001)  cg2d: iter=    10 ; resid.=  1.18956350979071E-02
(PID.TID 0000.0001)  cg2d: iter=    11 ; resid.=  9.24207051049133E-03
(PID.TID 0000.0001)  cg2d: iter=    12 ; resid.=  7.29312172239449E-03
(PID.TID 0000.0001)  cg2d: iter=    13 ; resid.=  5.89708413475934E-03
(PID.TID 0000.0001)  cg2d: iter=    14 ; resid.=  4.76256510669719E-03
(PID.TID 0000.0001)  cg2d: iter=    15 ; resid.=  4.11943452707277E-03
(PID.TID 0000.0001)  cg2d: iter=    16 ; resid.=  3.60147798533917E-03
(PID.TID 0000.0001)  cg2d: iter=    17 ; resid.=  3.13988972565864E-03
(PID.TID 0000.0001)  cg2d: iter=    18 ; resid.=  2.84388821674204E-03
(PID.TID 0000.0001)  cg2d: iter=    19 ; resid.=  2.47249051952370E-03
(PID.TID 0000.0001)  cg2d: iter=    20 ; resid.=  2.11123574542543E-03
(PID.TID 0000.0001)  cg2d: iter=    21 ; resid.=  1.74731912506793E-03
(PID.TID 0000.0001)  cg2d: iter=    22 ; resid.=  1.46647600381448E-03
(PID.TID 0000.0001)  cg2d: iter=    23 ; resid.=  1.19535179619009E-03
(PID.TID 0000.0001)  cg2d: iter=    24 ; resid.=  9.56629263493411E-04
(PID.TID 0000.0001)  cg2d: iter=    25 ; resid.=  7.99139258854189E-04
(PID.TID 0000.0001)  cg2d: iter=    26 ; resid.=  6.02988909077453E-04
(PID.TID 0000.0001)  cg2d: iter=    27 ; resid.=  5.01385022621085E-04
(PID.TID 0000.0001)  cg2d: iter=    28 ; resid.=  4.16568203380021E-04
(PID.TID 0000.0001)  cg2d: iter=    29 ; resid.=  3.42817170151594E-04
(PID.TID 0000.0001)  cg2d: iter=    30 ; resid.=  2.75444648303372E-04
(PID.TID 0000.0001)  cg2d: iter=    31 ; resid.=  2.50775917605512E-04
(PID.TID 0000.0001)  cg2d: iter=    32 ; resid.=  2.15113670210836E-04
(PID.TID 0000.0001)  cg2d: iter=    33 ; resid.=  1.70109340179607E-04
(PID.TID 0000.0001)  cg2d: iter=    34 ; resid.=  1.38387046728303E-04
(PID.TID 0000.0001)  cg2d: iter=    35 ; resid.=  1.07315950889658E-04
(PID.TID 0000.0001)  cg2d: iter=    36 ; resid.=  9.35572647934796E-05
(PID.TID 0000.0001)  cg2d: iter=    37 ; resid.=  8.10162079136305E-05
(PID.TID 0000.0001)  cg2d: iter=    38 ; resid.=  7.33798271826840E-05
(PID.TID 0000.0001)  cg2d: iter=    39 ; resid.=  6.68395142631774E-05
(PID.TID 0000.0001)  cg2d: iter=    40 ; resid.=  5.71945797955404E-05
(PID.TID 0000.0001)  cg2d: iter=    41 ; resid.=  4.16630526931910E-05
(PID.TID 0000.0001)  cg2d: iter=    42 ; resid.=  3.41524080628423E-05
(PID.TID 0000.0001)  cg2d: iter=    43 ; resid.=  3.27659238046620E-05
(PID.TID 0000.0001)  cg2d: iter=    44 ; resid.=  2.80933170619703E-05
(PID.TID 0000.0001)  cg2d: iter=    45 ; resid.=  2.11217843141545E-05
(PID.TID 0000.0001)  cg2d: iter=    46 ; resid.=  1.61890654292513E-05
(PID.TID 0000.0001)  cg2d: iter=    47 ; resid.=  1.29117269725896E-05
(PID.TID 0000.0001)  cg2d: iter=    48 ; resid.=  1.11831420170571E-05
(PID.TID 0000.0001)  cg2d: iter=    49 ; resid.=  1.07152436366918E-05
(PID.TID 0000.0001)  cg2d: iter=    50 ; resid.=  9.43600560448607E-06
(PID.TID 0000.0001)  cg2d: iter=    51 ; resid.=  8.09624782009614E-06
(PID.TID 0000.0001)  cg2d: iter=    52 ; resid.=  6.44286099979509E-06
(PID.TID 0000.0001)  cg2d: iter=    53 ; resid.=  5.57866464158018E-06
(PID.TID 0000.0001)  cg2d: iter=    54 ; resid.=  4.91197560080675E-06
(PID.TID 0000.0001)  cg2d: iter=    55 ; resid.=  4.04262567113596E-06
(PID.TID 0000.0001)  cg2d: iter=    56 ; resid.=  3.14507863210992E-06
(PID.TID 0000.0001)  cg2d: iter=    57 ; resid.=  2.52832894561010E-06
(PID.TID 0000.0001)  cg2d: iter=    58 ; resid.=  2.19709743940756E-06
(PID.TID 0000.0001)  cg2d: iter=    59 ; resid.=  1.73117944066765E-06
(PID.TID 0000.0001)  cg2d: iter=    60 ; resid.=  1.24846937427645E-06
(PID.TID 0000.0001)  cg2d: iter=    61 ; resid.=  9.40321485829706E-07
(PID.TID 0000.0001)  cg2d: iter=    62 ; resid.=  7.69281557668343E-07
(PID.TID 0000.0001)  cg2d: iter=    63 ; resid.=  6.19634976283846E-07
(PID.TID 0000.0001)  cg2d: iter=    64 ; resid.=  4.88863676517966E-07
(PID.TID 0000.0001)  cg2d: iter=    65 ; resid.=  4.02835971400357E-07
(PID.TID 0000.0001)  cg2d: iter=    66 ; resid.=  3.54449426296967E-07
(PID.TID 0000.0001)  cg2d: iter=    67 ; resid.=  3.03464796897790E-07
(PID.TID 0000.0001)  cg2d: iter=    68 ; resid.=  2.70553155102852E-07
(PID.TID 0000.0001)  cg2d: iter=    69 ; resid.=  2.35714825664276E-07
(PID.TID 0000.0001)  cg2d: iter=    70 ; resid.=  2.03606188354226E-07
(PID.TID 0000.0001)  cg2d: iter=    71 ; resid.=  1.66412304018471E-07
(PID.TID 0000.0001)  cg2d: iter=    72 ; resid.=  1.30786398701824E-07
(PID.TID 0000.0001)  cg2d: iter=    73 ; resid.=  1.07614777448013E-07
(PID.TID 0000.0001)  cg2d: iter=    74 ; resid.=  9.07201697367055E-08
(PID.TID 0000.0001)  cg2d: iter=    75 ; resid.=  7.50591408547090E-08
(PID.TID 0000.0001)  cg2d: iter=    76 ; resid.=  6.12332295331414E-08
(PID.TID 0000.0001)  cg2d: iter=    77 ; resid.=  5.05338935971934E-08
(PID.TID 0000.0001)  cg2d: iter=    78 ; resid.=  4.03625282304692E-08
(PID.TID 0000.0001)  cg2d: iter=    79 ; resid.=  3.46156179566976E-08
(PID.TID 0000.0001)  cg2d: iter=    80 ; resid.=  2.91850714213289E-08
(PID.TID 0000.0001)  cg2d: iter=    81 ; resid.=  2.27404981197958E-08
(PID.TID 0000.0001)  cg2d: iter=    82 ; resid.=  1.73979480289674E-08
(PID.TID 0000.0001)  cg2d: iter=    83 ; resid.=  1.27701539003107E-08
(PID.TID 0000.0001)  cg2d: iter=    84 ; resid.=  1.01697807281898E-08
(PID.TID 0000.0001)  cg2d: iter=    85 ; resid.=  7.26326975275000E-09
(PID.TID 0000.0001)  cg2d: iter=    86 ; resid.=  5.13589585471018E-09
(PID.TID 0000.0001)  cg2d: iter=    87 ; resid.=  4.17584853732192E-09
(PID.TID 0000.0001)  cg2d: iter=    88 ; resid.=  3.30377556207737E-09
(PID.TID 0000.0001)  cg2d: iter=    89 ; resid.=  2.62445204109095E-09
(PID.TID 0000.0001)  cg2d: iter=    90 ; resid.=  2.22177440520322E-09
(PID.TID 0000.0001)  cg2d: iter=    91 ; resid.=  1.92943640236357E-09
(PID.TID 0000.0001)  cg2d: iter=    92 ; resid.=  1.57029314771062E-09
(PID.TID 0000.0001)  cg2d: iter=    93 ; resid.=  1.27790249101016E-09
(PID.TID 0000.0001)  cg2d: iter=    94 ; resid.=  1.02238972411691E-09
(PID.TID 0000.0001)  cg2d: iter=    95 ; resid.=  7.40582385965255E-10
(PID.TID 0000.0001)  cg2d: iter=    96 ; resid.=  5.88096017205151E-10
(PID.TID 0000.0001)  cg2d: iter=    97 ; resid.=  4.97462341514987E-10
(PID.TID 0000.0001)  cg2d: iter=    98 ; resid.=  4.38437956055778E-10
(PID.TID 0000.0001)  cg2d: iter=    99 ; resid.=  3.75652144125234E-10
(PID.TID 0000.0001)  cg2d: iter=   100 ; resid.=  3.04817767627984E-10
(PID.TID 0000.0001)  cg2d: iter=   101 ; resid.=  2.58091894218409E-10
(PID.TID 0000.0001)  cg2d: iter=   102 ; resid.=  2.13836469385977E-10
(PID.TID 0000.0001)  cg2d: iter=   103 ; resid.=  1.65135590793694E-10
(PID.TID 0000.0001)  cg2d: iter=   104 ; resid.=  1.16577769356876E-10
(PID.TID 0000.0001)  cg2d: iter=   105 ; resid.=  8.79226332920096E-11
(PID.TID 0000.0001)  cg2d: iter=   106 ; resid.=  7.72258160951458E-11
(PID.TID 0000.0001)  cg2d: iter=   107 ; resid.=  5.69185503661842E-11
(PID.TID 0000.0001)  cg2d: iter=   108 ; resid.=  4.03125204802244E-11
(PID.TID 0000.0001)  cg2d: iter=   109 ; resid.=  2.99306428741547E-11
(PID.TID 0000.0001)  cg2d: iter=   110 ; resid.=  2.06715682268778E-11
(PID.TID 0000.0001)  cg2d: iter=   111 ; resid.=  1.51664124560493E-11
(PID.TID 0000.0001)  cg2d: iter=   112 ; resid.=  1.14684194881114E-11
(PID.TID 0000.0001)  cg2d: iter=   113 ; resid.=  8.28487678670911E-12
(PID.TID 0000.0001)  cg2d: iter=   114 ; resid.=  6.41402909547129E-12
(PID.TID 0000.0001)  cg2d: iter=   115 ; resid.=  4.79754060280610E-12
(PID.TID 0000.0001)  cg2d: iter=   116 ; resid.=  3.47733884241110E-12
(PID.TID 0000.0001)  cg2d: iter=   117 ; resid.=  2.78424797486323E-12
(PID.TID 0000.0001)  cg2d: iter=   118 ; resid.=  2.11314112089323E-12
(PID.TID 0000.0001)  cg2d: iter=   119 ; resid.=  1.58106537277481E-12
(PID.TID 0000.0001)  cg2d: iter=   120 ; resid.=  1.21861514765457E-12
(PID.TID 0000.0001)  cg2d: iter=   121 ; resid.=  9.20238597426024E-13
(PID.TID 0000.0001)  cg2d: iter=   122 ; resid.=  7.50739420871150E-13
(PID.TID 0000.0001)  cg2d: iter=   123 ; resid.=  5.72526940784253E-13
(PID.TID 0000.0001)  cg2d: iter=   124 ; resid.=  4.69071689213673E-13
(PID.TID 0000.0001)  cg2d: iter=   125 ; resid.=  3.56377467259751E-13
(PID.TID 0000.0001)  cg2d: iter=   126 ; resid.=  2.55068826788981E-13
(PID.TID 0000.0001)  cg2d: iter=   127 ; resid.=  1.88828506440684E-13
(PID.TID 0000.0001)  cg2d: iter=   128 ; resid.=  1.37535781054391E-13
(PID.TID 0000.0001)  cg2d: iter=   129 ; resid.=  9.27900254502251E-14
DEBUG_STATS_RL:    cg2d_x (SOLVE_FOR_PRESSURE)  min= -1.85847679597768E+01
DEBUG_STATS_RL:    cg2d_x (SOLVE_FOR_PRESSURE)  max=  9.56466300743909E+00
DEBUG_STATS_RL:    cg2d_x (SOLVE_FOR_PRESSURE) mean= -1.86702936146111E+00
DEBUG_STATS_RL:    cg2d_x (SOLVE_FOR_PRESSURE) S.D.=  7.30434677180944E+00
(PID.TID 0000.0001)      cg2d_init_res =   2.53713762938866E-01
(PID.TID 0000.0001)      cg2d_iters(min,last) =      -1     129
(PID.TID 0000.0001)      cg2d_last_res =   9.27900254502251E-14
(PID.TID 0000.0001) // =======================================================
(PID.TID 0000.0001) // Begin MONITOR dynamic field statistics
(PID.TID 0000.0001) // =======================================================
(PID.TID 0000.0001) %MON time_tsnumber                =                    68
(PID.TID 0000.0001) %MON time_secondsf                =   5.8752000000000E+06
(PID.TID 0000.0001) %MON dynstat_eta_max              =   9.7499113225682E-01
(PID.TID 0000.0001) %MON dynstat_eta_min              =  -1.8944717594063E+00
(PID.TID 0000.0001) %MON dynstat_eta_mean             =  -4.9288314741119E-03
(PID.TID 0000.0001) %MON dynstat_eta_sd               =   6.5046351559034E-01
(PID.TID 0000.0001) %MON dynstat_eta_del2             =   2.4237487111709E-03
(PID.TID 0000.0001) %MON dynstat_uvel_max             =   1.4056248164523E-01
(PID.TID 0000.0001) %MON dynstat_uvel_min             =  -1.2342523860310E-01
(PID.TID 0000.0001) %MON dynstat_uvel_mean            =   2.2154079929006E-03
(PID.TID 0000.0001) %MON dynstat_uvel_sd              =   1.2741252486617E-02
(PID.TID 0000.0001) %MON dynstat_uvel_del2            =   7.9214268412743E-05
(PID.TID 0000.0001) %MON dynstat_vvel_max             =   1.4371859326730E-01
(PID.TID 0000.0001) %MON dynstat_vvel_min             =  -9.4050022500081E-02
(PID.TID 0000.0001) %MON dynstat_vvel_mean            =   2.8403770344443E-05
(PID.TID 0000.0001) %MON dynstat_vvel_sd              =   8.1524399100594E-03
(PID.TID 0000.0001) %MON dynstat_vvel_del2            =   7.1643258051735E-05
(PID.TID 0000.0001) %MON dynstat_wvel_max             =   1.3365378950103E-04
(PID.TID 0000.0001) %MON dynstat_wvel_min             =  -7.4306362193627E-05
(PID.TID 0000.0001) %MON dynstat_wvel_mean            =  -2.9635077788262E-22
(PID.TID 0000.0001) %MON dynstat_wvel_sd              =   1.0161648241376E-05
(PID.TID 0000.0001) %MON dynstat_wvel_del2            =   1.0376977709384E-07
(PID.TID 0000.0001) %MON dynstat_theta_max            =   3.0714380905374E+01
(PID.TID 0000.0001) %MON dynstat_theta_min            =  -1.9557487013140E+00
(PID.TID 0000.0001) %MON dynstat_theta_mean           =   3.6237221996087E+00
(PID.TID 0000.0001) %MON dynstat_theta_sd             =   4.4253023332151E+00
(PID.TID 0000.0001) %MON dynstat_theta_del2           =   4.8785379242153E-03
(PID.TID 0000.0001) %MON dynstat_salt_max             =   3.7467078993872E+01
(PID.TID 0000.0001) %MON dynstat_salt_min             =   2.9884246009702E+01
(PID.TID 0000.0001) %MON dynstat_salt_mean            =   3.4718005370012E+01
(PID.TID 0000.0001) %MON dynstat_salt_sd              =   2.9651360203668E-01
(PID.TID 0000.0001) %MON dynstat_salt_del2            =   9.8789363853361E-04
(PID.TID 0000.0001) %MON dynstat_sst_max              =   3.0714380905374E+01
(PID.TID 0000.0001) %MON dynstat_sst_min              =  -1.9557487013140E+00
(PID.TID 0000.0001) %MON dynstat_sst_mean             =   1.9024535865898E+01
(PID.TID 0000.0001) %MON dynstat_sst_sd               =   9.1004203749820E+00
(PID.TID 0000.0001) %MON dynstat_sst_del2             =   2.8257653584152E-02
(PID.TID 0000.0001) %MON dynstat_sss_max              =   3.7453062472405E+01
(PID.TID 0000.0001) %MON dynstat_sss_min              =   2.9884246009702E+01
(PID.TID 0000.0001) %MON dynstat_sss_mean             =   3.4837913684726E+01
(PID.TID 0000.0001) %MON dynstat_sss_sd               =   9.8302838057809E-01
(PID.TID 0000.0001) %MON dynstat_sss_del2             =   8.0508624447688E-03
(PID.TID 0000.0001) %MON forcing_qnet_max             =   2.9689290364583E+02
(PID.TID 0000.0001) %MON forcing_qnet_min             =  -1.6624982503255E+02
(PID.TID 0000.0001) %MON forcing_qnet_mean            =  -9.0517819871576E+00
(PID.TID 0000.0001) %MON forcing_qnet_sd              =   5.2467021838171E+01
(PID.TID 0000.0001) %MON forcing_qnet_del2            =   8.6239476817543E-01
(PID.TID 0000.0001) %MON forcing_qsw_max              =   0.0000000000000E+00
(PID.TID 0000.0001) %MON forcing_qsw_min              =   0.0000000000000E+00
(PID.TID 0000.0001) %MON forcing_qsw_mean             =   0.0000000000000E+00
(PID.TID 0000.0001) %MON forcing_qsw_sd               =   0.0000000000000E+00
(PID.TID 0000.0001) %MON forcing_qsw_del2             =   0.0000000000000E+00
(PID.TID 0000.0001) %MON forcing_empmr_max            =   6.9154872524753E-05
(PID.TID 0000.0001) %MON forcing_empmr_min            =  -8.0070980838324E-05
(PID.TID 0000.0001) %MON forcing_empmr_mean           =   6.5543050067353E-07
(PID.TID 0000.0001) %MON forcing_empmr_sd             =   2.6530988089422E-05
(PID.TID 0000.0001) %MON forcing_empmr_del2           =   3.5820452796475E-07
(PID.TID 0000.0001) %MON forcing_fu_max               =   3.4202007055283E-01
(PID.TID 0000.0001) %MON forcing_fu_min               =  -3.3757946888606E-01
(PID.TID 0000.0001) %MON forcing_fu_mean              =   1.9703132584721E-02
(PID.TID 0000.0001) %MON forcing_fu_sd                =   9.7988970330100E-02
(PID.TID 0000.0001) %MON forcing_fu_del2              =   7.5916327161955E-04
(PID.TID 0000.0001) %MON forcing_fv_max               =   1.5269908905029E-01
(PID.TID 0000.0001) %MON forcing_fv_min               =  -1.8134930332502E-01
(PID.TID 0000.0001) %MON forcing_fv_mean              =  -7.4461486402888E-03
(PID.TID 0000.0001) %MON forcing_fv_sd                =   4.1765973059055E-02
(PID.TID 0000.0001) %MON forcing_fv_del2              =   4.7254399856662E-04
(PID.TID 0000.0001) %MON trAdv_CFL_u_max              =   4.5697833559646E-02
(PID.TID 0000.0001) %MON trAdv_CFL_v_max              =   2.7667238010988E-02
(PID.TID 0000.0001) %MON trAdv_CFL_w_max              =   2.9877349899163E-02
(PID.TID 0000.0001) %MON advcfl_uvel_max              =   4.6460906812453E-02
(PID.TID 0000.0001) %MON advcfl_vvel_max              =   2.7922217702718E-02
(PID.TID 0000.0001) %MON advcfl_wvel_max              =   3.1637499761339E-02
(PID.TID 0000.0001) %MON advcfl_W_hf_max              =   3.3963786508496E-02
(PID.TID 0000.0001) %MON pe_b_mean                    =   5.4144209763743E-04
(PID.TID 0000.0001) %MON ke_max                       =   1.1015066344132E-02
(PID.TID 0000.0001) %MON ke_mean                      =   1.0582128344495E-04
(PID.TID 0000.0001) %MON ke_vol                       =   1.3226782436723E+18
(PID.TID 0000.0001) %MON vort_r_min                   =  -2.9603533917133E-07
(PID.TID 0000.0001) %MON vort_r_max                   =   4.0463750948751E-07
(PID.TID 0000.0001) %MON vort_a_mean                  =  -2.5274807041078E-05
(PID.TID 0000.0001) %MON vort_a_sd                    =   7.3604642595338E-05
(PID.TID 0000.0001) %MON vort_p_mean                  =  -3.1845655350450E-05
(PID.TID 0000.0001) %MON vort_p_sd                    =   1.3162506726929E-04
(PID.TID 0000.0001) %MON surfExpan_theta_mean         =  -6.0812755743679E-08
(PID.TID 0000.0001) %MON surfExpan_salt_mean          =   5.5507262192007E-08
(PID.TID 0000.0001) // =======================================================
(PID.TID 0000.0001) // End MONITOR dynamic field statistics
(PID.TID 0000.0001) // =======================================================
 EXTERNAL_FIELDS_LOAD,        68 : iP,iLd,i0,i1=    2    3    2    3 ; Wght=  0.2333333333  0.7666666667
 EXTERNAL_FIELDS_LOAD: (fu0,1),fu,fv= -1.4435E-02 -2.7199E-02 -2.4221E-02 -4.5581E-03
 EXTERNAL_FIELDS_LOAD: SST,SSS,Q,E-P= -2.6509E-01  3.4542E+01  2.2125E+02  8.9166E-06
DEBUG_STATS_RL:          Uvel (THERMODYNAMICS)  min= -1.23425238603099E-01
DEBUG_STATS_RL:          Uvel (THERMODYNAMICS)  max=  1.40562481645234E-01
DEBUG_STATS_RL:          Uvel (THERMODYNAMICS) mean=  5.70632798991409E-03
DEBUG_STATS_RL:          Uvel (THERMODYNAMICS) S.D.=  2.08656313246469E-02
DEBUG_STATS_RL:          Vvel (THERMODYNAMICS)  min= -9.40500225000813E-02
DEBUG_STATS_RL:          Vvel (THERMODYNAMICS)  max=  1.43718593267304E-01
DEBUG_STATS_RL:          Vvel (THERMODYNAMICS) mean=  5.39297908126278E-04
DEBUG_STATS_RL:          Vvel (THERMODYNAMICS) S.D.=  1.33416197135226E-02
DEBUG_STATS_RL:          Wvel (THERMODYNAMICS)  min= -7.43063621936274E-05
DEBUG_STATS_RL:          Wvel (THERMODYNAMICS)  max=  1.33653789501027E-04
DEBUG_STATS_RL:          Wvel (THERMODYNAMICS) mean= -1.16100164111425E-07
DEBUG_STATS_RL:          Wvel (THERMODYNAMICS) S.D.=  9.01798252511286E-06
DEBUG_STATS_RL:         Theta (THERMODYNAMICS)  min= -1.95415884213751E+00
DEBUG_STATS_RL:         Theta (THERMODYNAMICS)  max=  3.07418584064494E+01
DEBUG_STATS_RL:         Theta (THERMODYNAMICS) mean=  3.22059350392101E+00
DEBUG_STATS_RL:         Theta (THERMODYNAMICS) S.D.=  5.88131860775621E+00
DEBUG_STATS_RL:          Salt (THERMODYNAMICS)  min= -2.42861286636753E-17
DEBUG_STATS_RL:          Salt (THERMODYNAMICS)  max=  3.74667490934768E+01
DEBUG_STATS_RL:          Salt (THERMODYNAMICS) mean=  1.88447280097715E+01
DEBUG_STATS_RL:          Salt (THERMODYNAMICS) S.D.=  1.73002719975927E+01
DEBUG_STATS_RL:         GtNm1 (THERMODYNAMICS)  min= -4.99551280902520E-06
DEBUG_STATS_RL:         GtNm1 (THERMODYNAMICS)  max=  2.62249105284945E-06
DEBUG_STATS_RL:         GtNm1 (THERMODYNAMICS) mean=  3.57644643514855E-09
DEBUG_STATS_RL:         GtNm1 (THERMODYNAMICS) S.D.=  1.57135653154693E-07
DEBUG_STATS_RL:         GsNm1 (THERMODYNAMICS)  min= -5.20666367742679E-07
DEBUG_STATS_RL:         GsNm1 (THERMODYNAMICS)  max=  3.57411549932598E-07
DEBUG_STATS_RL:         GsNm1 (THERMODYNAMICS) mean= -2.77611512768084E-10
DEBUG_STATS_RL:         GsNm1 (THERMODYNAMICS) S.D.=  1.50739044839696E-08
DEBUG_STATS_RL:                EtaN (DYNAMICS)  min= -1.89447175940630E+00
DEBUG_STATS_RL:                EtaN (DYNAMICS)  max=  9.74991132256820E-01
DEBUG_STATS_RL:                EtaN (DYNAMICS) mean= -1.90318997090838E-01
DEBUG_STATS_RL:                EtaN (DYNAMICS) S.D.=  7.44581730051935E-01
DEBUG_STATS_RL:                Uvel (DYNAMICS)  min= -1.23425238603099E-01
DEBUG_STATS_RL:                Uvel (DYNAMICS)  max=  1.40562481645234E-01
DEBUG_STATS_RL:                Uvel (DYNAMICS) mean=  5.70632798991409E-03
DEBUG_STATS_RL:                Uvel (DYNAMICS) S.D.=  2.08656313246469E-02
DEBUG_STATS_RL:                Vvel (DYNAMICS)  min= -9.40500225000813E-02
DEBUG_STATS_RL:                Vvel (DYNAMICS)  max=  1.43718593267304E-01
DEBUG_STATS_RL:                Vvel (DYNAMICS) mean=  5.39297908126278E-04
DEBUG_STATS_RL:                Vvel (DYNAMICS) S.D.=  1.33416197135226E-02
DEBUG_STATS_RL:                Wvel (DYNAMICS)  min= -7.43063621936274E-05
DEBUG_STATS_RL:                Wvel (DYNAMICS)  max=  1.33653789501027E-04
DEBUG_STATS_RL:                Wvel (DYNAMICS) mean= -1.16100164111425E-07
DEBUG_STATS_RL:                Wvel (DYNAMICS) S.D.=  9.01798252511286E-06
DEBUG_STATS_RL:               Theta (DYNAMICS)  min= -1.95415884213751E+00
DEBUG_STATS_RL:               Theta (DYNAMICS)  max=  3.07418584064494E+01
DEBUG_STATS_RL:               Theta (DYNAMICS) mean=  3.22059350392101E+00
DEBUG_STATS_RL:               Theta (DYNAMICS) S.D.=  5.88131860775621E+00
DEBUG_STATS_RL:                Salt (DYNAMICS)  min= -2.42861286636753E-17
DEBUG_STATS_RL:                Salt (DYNAMICS)  max=  3.74667490934768E+01
DEBUG_STATS_RL:                Salt (DYNAMICS) mean=  1.88447280097715E+01
DEBUG_STATS_RL:                Salt (DYNAMICS) S.D.=  1.73002719975927E+01
DEBUG_STATS_RL:                  Gu (DYNAMICS)  min= -1.23124179055441E-01
DEBUG_STATS_RL:                  Gu (DYNAMICS)  max=  1.42187475606767E-01
DEBUG_STATS_RL:                  Gu (DYNAMICS) mean=  5.72951996951449E-03
DEBUG_STATS_RL:                  Gu (DYNAMICS) S.D.=  2.14821958333040E-02
DEBUG_STATS_RL:                  Gv (DYNAMICS)  min= -1.01138376412929E-01
DEBUG_STATS_RL:                  Gv (DYNAMICS)  max=  1.44142168561624E-01
DEBUG_STATS_RL:                  Gv (DYNAMICS) mean=  3.10879355747127E-03
DEBUG_STATS_RL:                  Gv (DYNAMICS) S.D.=  1.44871663943731E-02
DEBUG_STATS_RL:               GuNm1 (DYNAMICS)  min= -9.96671958069206E-06
DEBUG_STATS_RL:               GuNm1 (DYNAMICS)  max=  9.22056771563938E-06
DEBUG_STATS_RL:               GuNm1 (DYNAMICS) mean=  4.71592195907856E-09
DEBUG_STATS_RL:               GuNm1 (DYNAMICS) S.D.=  1.20356408330180E-06
DEBUG_STATS_RL:               GvNm1 (DYNAMICS)  min= -1.00310457691227E-05
DEBUG_STATS_RL:               GvNm1 (DYNAMICS)  max=  1.56810833252911E-05
DEBUG_STATS_RL:               GvNm1 (DYNAMICS) mean=  7.35114640529079E-07
DEBUG_STATS_RL:               GvNm1 (DYNAMICS) S.D.=  2.63171817349550E-06
DEBUG_STATS_RL:               GtNm1 (DYNAMICS)  min= -4.99551280902520E-06
DEBUG_STATS_RL:               GtNm1 (DYNAMICS)  max=  2.62249105284945E-06
DEBUG_STATS_RL:               GtNm1 (DYNAMICS) mean=  3.57644643514855E-09
DEBUG_STATS_RL:               GtNm1 (DYNAMICS) S.D.=  1.57135653154693E-07
DEBUG_STATS_RL:               GsNm1 (DYNAMICS)  min= -5.20666367742679E-07
DEBUG_STATS_RL:               GsNm1 (DYNAMICS)  max=  3.57411549932598E-07
DEBUG_STATS_RL:               GsNm1 (DYNAMICS) mean= -2.77611512768084E-10
DEBUG_STATS_RL:               GsNm1 (DYNAMICS) S.D.=  1.50739044839696E-08
DEBUG_STATS_RL:    cg2d_b (SOLVE_FOR_PRESSURE)  min= -2.24501005771721E+04
DEBUG_STATS_RL:    cg2d_b (SOLVE_FOR_PRESSURE)  max=  2.39399118949068E+04
DEBUG_STATS_RL:    cg2d_b (SOLVE_FOR_PRESSURE) mean=  4.77531870410768E+00
DEBUG_STATS_RL:    cg2d_b (SOLVE_FOR_PRESSURE) S.D.=  3.92351434845604E+03
 cg2d: Sum(rhs),rhsMax =   4.61775417074976E-01  1.57243751059312E+00
(PID.TID 0000.0001)  cg2d: iter=     1 ; resid.=  7.07685000812152E-02
(PID.TID 0000.0001)  cg2d: iter=     2 ; resid.=  4.21059708745140E-02
(PID.TID 0000.0001)  cg2d: iter=     3 ; resid.=  4.13579433105154E-02
(PID.TID 0000.0001)  cg2d: iter=     4 ; resid.=  4.49511725064854E-02
(PID.TID 0000.0001)  cg2d: iter=     5 ; resid.=  4.63202302330662E-02
(PID.TID 0000.0001)  cg2d: iter=     6 ; resid.=  3.78039330411785E-02
(PID.TID 0000.0001)  cg2d: iter=     7 ; resid.=  2.80162119362086E-02
(PID.TID 0000.0001)  cg2d: iter=     8 ; resid.=  2.00834880134136E-02
(PID.TID 0000.0001)  cg2d: iter=     9 ; resid.=  1.58104950694151E-02
(PID.TID 0000.0001)  cg2d: iter=    10 ; resid.=  1.24679807911557E-02
(PID.TID 0000.0001)  cg2d: iter=    11 ; resid.=  9.67335858692904E-03
(PID.TID 0000.0001)  cg2d: iter=    12 ; resid.=  7.81459404246273E-03
(PID.TID 0000.0001)  cg2d: iter=    13 ; resid.=  6.47541194511809E-03
(PID.TID 0000.0001)  cg2d: iter=    14 ; resid.=  5.28320381095613E-03
(PID.TID 0000.0001)  cg2d: iter=    15 ; resid.=  4.57899340511985E-03
(PID.TID 0000.0001)  cg2d: iter=    16 ; resid.=  4.07262910145743E-03
(PID.TID 0000.0001)  cg2d: iter=    17 ; resid.=  3.63513227007493E-03
(PID.TID 0000.0001)  cg2d: iter=    18 ; resid.=  3.32174402107581E-03
(PID.TID 0000.0001)  cg2d: iter=    19 ; resid.=  2.79896956424712E-03
(PID.TID 0000.0001)  cg2d: iter=    20 ; resid.=  2.31030864638079E-03
(PID.TID 0000.0001)  cg2d: iter=    21 ; resid.=  1.89589174234240E-03
(PID.TID 0000.0001)  cg2d: iter=    22 ; resid.=  1.58493264784607E-03
(PID.TID 0000.0001)  cg2d: iter=    23 ; resid.=  1.30762857420580E-03
(PID.TID 0000.0001)  cg2d: iter=    24 ; resid.=  1.04156496032891E-03
(PID.TID 0000.0001)  cg2d: iter=    25 ; resid.=  8.59393381789012E-04
(PID.TID 0000.0001)  cg2d: iter=    26 ; resid.=  6.53560347503705E-04
(PID.TID 0000.0001)  cg2d: iter=    27 ; resid.=  5.43843567769100E-04
(PID.TID 0000.0001)  cg2d: iter=    28 ; resid.=  4.49385652617783E-04
(PID.TID 0000.0001)  cg2d: iter=    29 ; resid.=  3.66960861985856E-04
(PID.TID 0000.0001)  cg2d: iter=    30 ; resid.=  2.97013889040837E-04
(PID.TID 0000.0001)  cg2d: iter=    31 ; resid.=  2.68900578570401E-04
(PID.TID 0000.0001)  cg2d: iter=    32 ; resid.=  2.28235754393952E-04
(PID.TID 0000.0001)  cg2d: iter=    33 ; resid.=  1.83483969041538E-04
(PID.TID 0000.0001)  cg2d: iter=    34 ; resid.=  1.50118735758603E-04
(PID.TID 0000.0001)  cg2d: iter=    35 ; resid.=  1.16969577929357E-04
(PID.TID 0000.0001)  cg2d: iter=    36 ; resid.=  1.02932695236452E-04
(PID.TID 0000.0001)  cg2d: iter=    37 ; resid.=  8.96582800855626E-05
(PID.TID 0000.0001)  cg2d: iter=    38 ; resid.=  8.20418536585971E-05
(PID.TID 0000.0001)  cg2d: iter=    39 ; resid.=  7.39875257920661E-05
(PID.TID 0000.0001)  cg2d: iter=    40 ; resid.=  6.22494622931730E-05
(PID.TID 0000.0001)  cg2d: iter=    41 ; resid.=  4.49957050137644E-05
(PID.TID 0000.0001)  cg2d: iter=    42 ; resid.=  3.72351122973721E-05
(PID.TID 0000.0001)  cg2d: iter=    43 ; resid.=  3.61531439900587E-05
(PID.TID 0000.0001)  cg2d: iter=    44 ; resid.=  3.08776574779675E-05
(PID.TID 0000.0001)  cg2d: iter=    45 ; resid.=  2.32269725631675E-05
(PID.TID 0000.0001)  cg2d: iter=    46 ; resid.=  1.80368651445720E-05
(PID.TID 0000.0001)  cg2d: iter=    47 ; resid.=  1.45798535252633E-05
(PID.TID 0000.0001)  cg2d: iter=    48 ; resid.=  1.25718652083894E-05
(PID.TID 0000.0001)  cg2d: iter=    49 ; resid.=  1.18743521105910E-05
(PID.TID 0000.0001)  cg2d: iter=    50 ; resid.=  1.03034216701179E-05
(PID.TID 0000.0001)  cg2d: iter=    51 ; resid.=  8.88600523256678E-06
(PID.TID 0000.0001)  cg2d: iter=    52 ; resid.=  7.03317350495780E-06
(PID.TID 0000.0001)  cg2d: iter=    53 ; resid.=  6.05337544835896E-06
(PID.TID 0000.0001)  cg2d: iter=    54 ; resid.=  5.25426810016608E-06
(PID.TID 0000.0001)  cg2d: iter=    55 ; resid.=  4.33080741932881E-06
(PID.TID 0000.0001)  cg2d: iter=    56 ; resid.=  3.44707267127925E-06
(PID.TID 0000.0001)  cg2d: iter=    57 ; resid.=  2.80308330299047E-06
(PID.TID 0000.0001)  cg2d: iter=    58 ; resid.=  2.37988681944628E-06
(PID.TID 0000.0001)  cg2d: iter=    59 ; resid.=  1.81966551282455E-06
(PID.TID 0000.0001)  cg2d: iter=    60 ; resid.=  1.29748506022006E-06
(PID.TID 0000.0001)  cg2d: iter=    61 ; resid.=  9.90465770491682E-07
(PID.TID 0000.0001)  cg2d: iter=    62 ; resid.=  8.29515023962604E-07
(PID.TID 0000.0001)  cg2d: iter=    63 ; resid.=  6.77315050412528E-07
(PID.TID 0000.0001)  cg2d: iter=    64 ; resid.=  5.35449069845380E-07
(PID.TID 0000.0001)  cg2d: iter=    65 ; resid.=  4.40697239065072E-07
(PID.TID 0000.0001)  cg2d: iter=    66 ; resid.=  3.96164806017130E-07
(PID.TID 0000.0001)  cg2d: iter=    67 ; resid.=  3.39563034572047E-07
(PID.TID 0000.0001)  cg2d: iter=    68 ; resid.=  3.02659533572994E-07
(PID.TID 0000.0001)  cg2d: iter=    69 ; resid.=  2.63023106000634E-07
(PID.TID 0000.0001)  cg2d: iter=    70 ; resid.=  2.28815712320106E-07
(PID.TID 0000.0001)  cg2d: iter=    71 ; resid.=  1.85550394035643E-07
(PID.TID 0000.0001)  cg2d: iter=    72 ; resid.=  1.43542641298732E-07
(PID.TID 0000.0001)  cg2d: iter=    73 ; resid.=  1.18574623622677E-07
(PID.TID 0000.0001)  cg2d: iter=    74 ; resid.=  1.01040280163010E-07
(PID.TID 0000.0001)  cg2d: iter=    75 ; resid.=  8.35208595643348E-08
(PID.TID 0000.0001)  cg2d: iter=    76 ; resid.=  6.66818298365343E-08
(PID.TID 0000.0001)  cg2d: iter=    77 ; resid.=  5.32605433944113E-08
(PID.TID 0000.0001)  cg2d: iter=    78 ; resid.=  4.18230831715515E-08
(PID.TID 0000.0001)  cg2d: iter=    79 ; resid.=  3.54102346826609E-08
(PID.TID 0000.0001)  cg2d: iter=    80 ; resid.=  2.97168206028986E-08
(PID.TID 0000.0001)  cg2d: iter=    81 ; resid.=  2.32213287903354E-08
(PID.TID 0000.0001)  cg2d: iter=    82 ; resid.=  1.79215176063529E-08
(PID.TID 0000.0001)  cg2d: iter=    83 ; resid.=  1.30909772626776E-08
(PID.TID 0000.0001)  cg2d: iter=    84 ; resid.=  1.03703289382620E-08
(PID.TID 0000.0001)  cg2d: iter=    85 ; resid.=  7.30565805156103E-09
(PID.TID 0000.0001)  cg2d: iter=    86 ; resid.=  5.16139666730185E-09
(PID.TID 0000.0001)  cg2d: iter=    87 ; resid.=  4.20456579368321E-09
(PID.TID 0000.0001)  cg2d: iter=    88 ; resid.=  3.37912403942635E-09
(PID.TID 0000.0001)  cg2d: iter=    89 ; resid.=  2.71733184073579E-09
(PID.TID 0000.0001)  cg2d: iter=    90 ; resid.=  2.26418416276285E-09
(PID.TID 0000.0001)  cg2d: iter=    91 ; resid.=  1.93033740523327E-09
(PID.TID 0000.0001)  cg2d: iter=    92 ; resid.=  1.55189563289320E-09
(PID.TID 0000.0001)  cg2d: iter=    93 ; resid.=  1.26025898694672E-09
(PID.TID 0000.0001)  cg2d: iter=    94 ; resid.=  1.00450828872673E-09
(PID.TID 0000.0001)  cg2d: iter=    95 ; resid.=  7.22553497865544E-10
(PID.TID 0000.0001)  cg2d: iter=    96 ; resid.=  5.67197562223796E-10
(PID.TID 0000.0001)  cg2d: iter=    97 ; resid.=  4.79539601366015E-10
(PID.TID 0000.0001)  cg2d: iter=    98 ; resid.=  4.20630983119921E-10
(PID.TID 0000.0001)  cg2d: iter=    99 ; resid.=  3.61747600035168E-10
(PID.TID 0000.0001)  cg2d: iter=   100 ; resid.=  2.99450300287706E-10
(PID.TID 0000.0001)  cg2d: iter=   101 ; resid.=  2.57924012891457E-10
(PID.TID 0000.0001)  cg2d: iter=   102 ; resid.=  2.14992067769177E-10
(PID.TID 0000.0001)  cg2d: iter=   103 ; resid.=  1.66016705560119E-10
(PID.TID 0000.0001)  cg2d: iter=   104 ; resid.=  1.17685338581778E-10
(PID.TID 0000.0001)  cg2d: iter=   105 ; resid.=  8.97832071729866E-11
(PID.TID 0000.0001)  cg2d: iter=   106 ; resid.=  8.07579565754084E-11
(PID.TID 0000.0001)  cg2d: iter=   107 ; resid.=  5.92882049823363E-11
(PID.TID 0000.0001)  cg2d: iter=   108 ; resid.=  4.15569047404496E-11
(PID.TID 0000.0001)  cg2d: iter=   109 ; resid.=  3.04322664152262E-11
(PID.TID 0000.0001)  cg2d: iter=   110 ; resid.=  2.10724549528919E-11
(PID.TID 0000.0001)  cg2d: iter=   111 ; resid.=  1.60750330951204E-11
(PID.TID 0000.0001)  cg2d: iter=   112 ; resid.=  1.25567136026812E-11
(PID.TID 0000.0001)  cg2d: iter=   113 ; resid.=  9.39890837715711E-12
(PID.TID 0000.0001)  cg2d: iter=   114 ; resid.=  7.39763637672145E-12
(PID.TID 0000.0001)  cg2d: iter=   115 ; resid.=  5.51082962095451E-12
(PID.TID 0000.0001)  cg2d: iter=   116 ; resid.=  4.00017749900297E-12
(PID.TID 0000.0001)  cg2d: iter=   117 ; resid.=  3.27980446216318E-12
(PID.TID 0000.0001)  cg2d: iter=   118 ; resid.=  2.51603580089005E-12
(PID.TID 0000.0001)  cg2d: iter=   119 ; resid.=  1.92543014473993E-12
(PID.TID 0000.0001)  cg2d: iter=   120 ; resid.=  1.52347823338747E-12
(PID.TID 0000.0001)  cg2d: iter=   121 ; resid.=  1.19048061129498E-12
(PID.TID 0000.0001)  cg2d: iter=   122 ; resid.=  9.78779817281166E-13
(PID.TID 0000.0001)  cg2d: iter=   123 ; resid.=  7.14285655726943E-13
(PID.TID 0000.0001)  cg2d: iter=   124 ; resid.=  5.56083592401852E-13
(PID.TID 0000.0001)  cg2d: iter=   125 ; resid.=  4.07853063000760E-13
(PID.TID 0000.0001)  cg2d: iter=   126 ; resid.=  2.85495160707430E-13
(PID.TID 0000.0001)  cg2d: iter=   127 ; resid.=  2.04404962889813E-13
(PID.TID 0000.0001)  cg2d: iter=   128 ; resid.=  1.45482456519256E-13
(PID.TID 0000.0001)  cg2d: iter=   129 ; resid.=  9.74573077564115E-14
DEBUG_STATS_RL:    cg2d_x (SOLVE_FOR_PRESSURE)  min= -1.85787395567141E+01
DEBUG_STATS_RL:    cg2d_x (SOLVE_FOR_PRESSURE)  max=  9.52357223422195E+00
DEBUG_STATS_RL:    cg2d_x (SOLVE_FOR_PRESSURE) mean= -1.86341264359769E+00
DEBUG_STATS_RL:    cg2d_x (SOLVE_FOR_PRESSURE) S.D.=  7.27362526527470E+00
(PID.TID 0000.0001)      cg2d_init_res =   2.55540789656367E-01
(PID.TID 0000.0001)      cg2d_iters(min,last) =      -1     129
(PID.TID 0000.0001)      cg2d_last_res =   9.74573077564115E-14
(PID.TID 0000.0001) // =======================================================
(PID.TID 0000.0001) // Begin MONITOR dynamic field statistics
(PID.TID 0000.0001) // =======================================================
(PID.TID 0000.0001) %MON time_tsnumber                =                    69
(PID.TID 0000.0001) %MON time_secondsf                =   5.9616000000000E+06
(PID.TID 0000.0001) %MON dynstat_eta_max              =   9.7080247035908E-01
(PID.TID 0000.0001) %MON dynstat_eta_min              =  -1.8938572432939E+00
(PID.TID 0000.0001) %MON dynstat_eta_mean             =  -4.9824529477652E-03
(PID.TID 0000.0001) %MON dynstat_eta_sd               =   6.4660763931033E-01
(PID.TID 0000.0001) %MON dynstat_eta_del2             =   2.4256811461162E-03
(PID.TID 0000.0001) %MON dynstat_uvel_max             =   1.4384262684722E-01
(PID.TID 0000.0001) %MON dynstat_uvel_min             =  -1.2292376065972E-01
(PID.TID 0000.0001) %MON dynstat_uvel_mean            =   2.2323516628997E-03
(PID.TID 0000.0001) %MON dynstat_uvel_sd              =   1.2874821572580E-02
(PID.TID 0000.0001) %MON dynstat_uvel_del2            =   7.9768713739619E-05
(PID.TID 0000.0001) %MON dynstat_vvel_max             =   1.4408055149448E-01
(PID.TID 0000.0001) %MON dynstat_vvel_min             =  -9.0590580668563E-02
(PID.TID 0000.0001) %MON dynstat_vvel_mean            =   2.9979561766677E-05
(PID.TID 0000.0001) %MON dynstat_vvel_sd              =   8.1420200079524E-03
(PID.TID 0000.0001) %MON dynstat_vvel_del2            =   7.1744704865118E-05
(PID.TID 0000.0001) %MON dynstat_wvel_max             =   1.4099028365683E-04
(PID.TID 0000.0001) %MON dynstat_wvel_min             =  -7.4362472886663E-05
(PID.TID 0000.0001) %MON dynstat_wvel_mean            =   2.4600423215384E-22
(PID.TID 0000.0001) %MON dynstat_wvel_sd              =   1.0143948873837E-05
(PID.TID 0000.0001) %MON dynstat_wvel_del2            =   1.0311236299021E-07
(PID.TID 0000.0001) %MON dynstat_theta_max            =   3.0741858406449E+01
(PID.TID 0000.0001) %MON dynstat_theta_min            =  -1.9541588421375E+00
(PID.TID 0000.0001) %MON dynstat_theta_mean           =   3.6237730947345E+00
(PID.TID 0000.0001) %MON dynstat_theta_sd             =   4.4255236964180E+00
(PID.TID 0000.0001) %MON dynstat_theta_del2           =   4.8740243631812E-03
(PID.TID 0000.0001) %MON dynstat_salt_max             =   3.7466749093477E+01
(PID.TID 0000.0001) %MON dynstat_salt_min             =   2.9886597869747E+01
(PID.TID 0000.0001) %MON dynstat_salt_mean            =   3.4718004787313E+01
(PID.TID 0000.0001) %MON dynstat_salt_sd              =   2.9651783543601E-01
(PID.TID 0000.0001) %MON dynstat_salt_del2            =   9.8765940013177E-04
(PID.TID 0000.0001) %MON dynstat_sst_max              =   3.0741858406449E+01
(PID.TID 0000.0001) %MON dynstat_sst_min              =  -1.9541588421375E+00
(PID.TID 0000.0001) %MON dynstat_sst_mean             =   1.9028783919289E+01
(PID.TID 0000.0001) %MON dynstat_sst_sd               =   9.1055132668792E+00
(PID.TID 0000.0001) %MON dynstat_sst_del2             =   2.8286377191819E-02
(PID.TID 0000.0001) %MON dynstat_sss_max              =   3.7453646985471E+01
(PID.TID 0000.0001) %MON dynstat_sss_min              =   2.9886597869747E+01
(PID.TID 0000.0001) %MON dynstat_sss_mean             =   3.4837773394098E+01
(PID.TID 0000.0001) %MON dynstat_sss_sd               =   9.8331120377892E-01
(PID.TID 0000.0001) %MON dynstat_sss_del2             =   8.0565302422249E-03
(PID.TID 0000.0001) %MON forcing_qnet_max             =   2.9409475199382E+02
(PID.TID 0000.0001) %MON forcing_qnet_min             =  -1.6595054575602E+02
(PID.TID 0000.0001) %MON forcing_qnet_mean            =  -8.8284424875309E+00
(PID.TID 0000.0001) %MON forcing_qnet_sd              =   5.1556716411678E+01
(PID.TID 0000.0001) %MON forcing_qnet_del2            =   8.6047167969994E-01
(PID.TID 0000.0001) %MON forcing_qsw_max              =   0.0000000000000E+00
(PID.TID 0000.0001) %MON forcing_qsw_min              =   0.0000000000000E+00
(PID.TID 0000.0001) %MON forcing_qsw_mean             =   0.0000000000000E+00
(PID.TID 0000.0001) %MON forcing_qsw_sd               =   0.0000000000000E+00
(PID.TID 0000.0001) %MON forcing_qsw_del2             =   0.0000000000000E+00
(PID.TID 0000.0001) %MON forcing_empmr_max            =   6.9149116181203E-05
(PID.TID 0000.0001) %MON forcing_empmr_min            =  -8.0470160431408E-05
(PID.TID 0000.0001) %MON forcing_empmr_mean           =   6.4234056979919E-07
(PID.TID 0000.0001) %MON forcing_empmr_sd             =   2.6492034709442E-05
(PID.TID 0000.0001) %MON forcing_empmr_del2           =   3.5902970702507E-07
(PID.TID 0000.0001) %MON forcing_fu_max               =   3.4396148622036E-01
(PID.TID 0000.0001) %MON forcing_fu_min               =  -3.4395158787568E-01
(PID.TID 0000.0001) %MON forcing_fu_mean              =   1.9797332174179E-02
(PID.TID 0000.0001) %MON forcing_fu_sd                =   9.8445033933998E-02
(PID.TID 0000.0001) %MON forcing_fu_del2              =   7.6829958802129E-04
(PID.TID 0000.0001) %MON forcing_fv_max               =   1.5652424618602E-01
(PID.TID 0000.0001) %MON forcing_fv_min               =  -1.8284709403912E-01
(PID.TID 0000.0001) %MON forcing_fv_mean              =  -7.4565769902582E-03
(PID.TID 0000.0001) %MON forcing_fv_sd                =   4.1818730949016E-02
(PID.TID 0000.0001) %MON forcing_fv_del2              =   4.7523888340989E-04
(PID.TID 0000.0001) %MON trAdv_CFL_u_max              =   4.6470343354920E-02
(PID.TID 0000.0001) %MON trAdv_CFL_v_max              =   2.7808434121584E-02
(PID.TID 0000.0001) %MON trAdv_CFL_w_max              =   2.9765384315035E-02
(PID.TID 0000.0001) %MON advcfl_uvel_max              =   4.7545111635655E-02
(PID.TID 0000.0001) %MON advcfl_vvel_max              =   2.7992540381147E-02
(PID.TID 0000.0001) %MON advcfl_wvel_max              =   3.3374138377946E-02
(PID.TID 0000.0001) %MON advcfl_W_hf_max              =   3.5828119141030E-02
(PID.TID 0000.0001) %MON pe_b_mean                    =   5.3504295279659E-04
(PID.TID 0000.0001) %MON ke_max                       =   1.1146637763035E-02
(PID.TID 0000.0001) %MON ke_mean                      =   1.0733378418397E-04
(PID.TID 0000.0001) %MON ke_vol                       =   1.3226782436723E+18
(PID.TID 0000.0001) %MON vort_r_min                   =  -2.9593933345316E-07
(PID.TID 0000.0001) %MON vort_r_max                   =   4.0573173533872E-07
(PID.TID 0000.0001) %MON vort_a_mean                  =  -2.5274807043577E-05
(PID.TID 0000.0001) %MON vort_a_sd                    =   7.3604644572002E-05
(PID.TID 0000.0001) %MON vort_p_mean                  =  -3.1845655353599E-05
(PID.TID 0000.0001) %MON vort_p_sd                    =   1.3162504657989E-04
(PID.TID 0000.0001) %MON surfExpan_theta_mean         =  -6.8085089383943E-08
(PID.TID 0000.0001) %MON surfExpan_salt_mean          =   6.0499926189860E-08
(PID.TID 0000.0001) // =======================================================
(PID.TID 0000.0001) // End MONITOR dynamic field statistics
(PID.TID 0000.0001) // =======================================================
 EXTERNAL_FIELDS_LOAD,        69 : iP,iLd,i0,i1=    2    3    2    3 ; Wght=  0.2000000000  0.8000000000
 EXTERNAL_FIELDS_LOAD: (fu0,1),fu,fv= -1.4435E-02 -2.7199E-02 -2.4646E-02 -3.9896E-03
 EXTERNAL_FIELDS_LOAD: SST,SSS,Q,E-P= -2.5350E-01  3.4548E+01  2.2041E+02  8.9401E-06
DEBUG_STATS_RL:          Uvel (THERMODYNAMICS)  min= -1.22923760659719E-01
DEBUG_STATS_RL:          Uvel (THERMODYNAMICS)  max=  1.43842626847225E-01
DEBUG_STATS_RL:          Uvel (THERMODYNAMICS) mean=  5.79201014597232E-03
DEBUG_STATS_RL:          Uvel (THERMODYNAMICS) S.D.=  2.11068714501545E-02
DEBUG_STATS_RL:          Vvel (THERMODYNAMICS)  min= -9.05905806685628E-02
DEBUG_STATS_RL:          Vvel (THERMODYNAMICS)  max=  1.44080551494482E-01
DEBUG_STATS_RL:          Vvel (THERMODYNAMICS) mean=  5.64775227990013E-04
DEBUG_STATS_RL:          Vvel (THERMODYNAMICS) S.D.=  1.33155671549430E-02
DEBUG_STATS_RL:          Wvel (THERMODYNAMICS)  min= -7.43624728866625E-05
DEBUG_STATS_RL:          Wvel (THERMODYNAMICS)  max=  1.40990283656833E-04
DEBUG_STATS_RL:          Wvel (THERMODYNAMICS) mean= -1.05916268099675E-07
DEBUG_STATS_RL:          Wvel (THERMODYNAMICS) S.D.=  9.00427000557467E-06
DEBUG_STATS_RL:         Theta (THERMODYNAMICS)  min= -1.95307027592402E+00
DEBUG_STATS_RL:         Theta (THERMODYNAMICS)  max=  3.07694096868471E+01
DEBUG_STATS_RL:         Theta (THERMODYNAMICS) mean=  3.22074829049575E+00
DEBUG_STATS_RL:         Theta (THERMODYNAMICS) S.D.=  5.88183431966581E+00
DEBUG_STATS_RL:          Salt (THERMODYNAMICS)  min= -2.42861286636753E-17
DEBUG_STATS_RL:          Salt (THERMODYNAMICS)  max=  3.74663669896174E+01
DEBUG_STATS_RL:          Salt (THERMODYNAMICS) mean=  1.88447241862499E+01
DEBUG_STATS_RL:          Salt (THERMODYNAMICS) S.D.=  1.73002690649496E+01
DEBUG_STATS_RL:         GtNm1 (THERMODYNAMICS)  min= -4.83656483310431E-06
DEBUG_STATS_RL:         GtNm1 (THERMODYNAMICS)  max=  2.51402171305544E-06
DEBUG_STATS_RL:         GtNm1 (THERMODYNAMICS) mean=  3.50919863703628E-09
DEBUG_STATS_RL:         GtNm1 (THERMODYNAMICS) S.D.=  1.54370172814803E-07
DEBUG_STATS_RL:         GsNm1 (THERMODYNAMICS)  min= -5.32092248670084E-07
DEBUG_STATS_RL:         GsNm1 (THERMODYNAMICS)  max=  3.64134141662397E-07
DEBUG_STATS_RL:         GsNm1 (THERMODYNAMICS) mean= -2.30685391451624E-10
DEBUG_STATS_RL:         GsNm1 (THERMODYNAMICS) S.D.=  1.47583546808790E-08
DEBUG_STATS_RL:                EtaN (DYNAMICS)  min= -1.89385724329393E+00
DEBUG_STATS_RL:                EtaN (DYNAMICS)  max=  9.70802470359078E-01
DEBUG_STATS_RL:                EtaN (DYNAMICS) mean= -1.89950320448286E-01
DEBUG_STATS_RL:                EtaN (DYNAMICS) S.D.=  7.41450078009654E-01
DEBUG_STATS_RL:                Uvel (DYNAMICS)  min= -1.22923760659719E-01
DEBUG_STATS_RL:                Uvel (DYNAMICS)  max=  1.43842626847225E-01
DEBUG_STATS_RL:                Uvel (DYNAMICS) mean=  5.79201014597232E-03
DEBUG_STATS_RL:                Uvel (DYNAMICS) S.D.=  2.11068714501545E-02
DEBUG_STATS_RL:                Vvel (DYNAMICS)  min= -9.05905806685628E-02
DEBUG_STATS_RL:                Vvel (DYNAMICS)  max=  1.44080551494482E-01
DEBUG_STATS_RL:                Vvel (DYNAMICS) mean=  5.64775227990013E-04
DEBUG_STATS_RL:                Vvel (DYNAMICS) S.D.=  1.33155671549430E-02
DEBUG_STATS_RL:                Wvel (DYNAMICS)  min= -7.43624728866625E-05
DEBUG_STATS_RL:                Wvel (DYNAMICS)  max=  1.40990283656833E-04
DEBUG_STATS_RL:                Wvel (DYNAMICS) mean= -1.05916268099675E-07
DEBUG_STATS_RL:                Wvel (DYNAMICS) S.D.=  9.00427000557467E-06
DEBUG_STATS_RL:               Theta (DYNAMICS)  min= -1.95307027592402E+00
DEBUG_STATS_RL:               Theta (DYNAMICS)  max=  3.07694096868471E+01
DEBUG_STATS_RL:               Theta (DYNAMICS) mean=  3.22074829049575E+00
DEBUG_STATS_RL:               Theta (DYNAMICS) S.D.=  5.88183431966581E+00
DEBUG_STATS_RL:                Salt (DYNAMICS)  min= -2.42861286636753E-17
DEBUG_STATS_RL:                Salt (DYNAMICS)  max=  3.74663669896174E+01
DEBUG_STATS_RL:                Salt (DYNAMICS) mean=  1.88447241862499E+01
DEBUG_STATS_RL:                Salt (DYNAMICS) S.D.=  1.73002690649496E+01
DEBUG_STATS_RL:                  Gu (DYNAMICS)  min= -1.22604411631881E-01
DEBUG_STATS_RL:                  Gu (DYNAMICS)  max=  1.44400150175551E-01
DEBUG_STATS_RL:                  Gu (DYNAMICS) mean=  5.80708315378144E-03
DEBUG_STATS_RL:                  Gu (DYNAMICS) S.D.=  2.17150714057091E-02
DEBUG_STATS_RL:                  Gv (DYNAMICS)  min= -9.69100269590300E-02
DEBUG_STATS_RL:                  Gv (DYNAMICS)  max=  1.44417242855215E-01
DEBUG_STATS_RL:                  Gv (DYNAMICS) mean=  3.15072648667194E-03
DEBUG_STATS_RL:                  Gv (DYNAMICS) S.D.=  1.44866304058757E-02
DEBUG_STATS_RL:               GuNm1 (DYNAMICS)  min= -9.97923484252294E-06
DEBUG_STATS_RL:               GuNm1 (DYNAMICS)  max=  9.21784542059622E-06
DEBUG_STATS_RL:               GuNm1 (DYNAMICS) mean=  5.10944672920848E-09
DEBUG_STATS_RL:               GuNm1 (DYNAMICS) S.D.=  1.20526966173709E-06
DEBUG_STATS_RL:               GvNm1 (DYNAMICS)  min= -1.00198273261060E-05
DEBUG_STATS_RL:               GvNm1 (DYNAMICS)  max=  1.56702224572838E-05
DEBUG_STATS_RL:               GvNm1 (DYNAMICS) mean=  7.35061186219622E-07
DEBUG_STATS_RL:               GvNm1 (DYNAMICS) S.D.=  2.62960281807778E-06
DEBUG_STATS_RL:               GtNm1 (DYNAMICS)  min= -4.83656483310431E-06
DEBUG_STATS_RL:               GtNm1 (DYNAMICS)  max=  2.51402171305544E-06
DEBUG_STATS_RL:               GtNm1 (DYNAMICS) mean=  3.50919863703628E-09
DEBUG_STATS_RL:               GtNm1 (DYNAMICS) S.D.=  1.54370172814803E-07
DEBUG_STATS_RL:               GsNm1 (DYNAMICS)  min= -5.32092248670084E-07
DEBUG_STATS_RL:               GsNm1 (DYNAMICS)  max=  3.64134141662397E-07
DEBUG_STATS_RL:               GsNm1 (DYNAMICS) mean= -2.30685391451624E-10
DEBUG_STATS_RL:               GsNm1 (DYNAMICS) S.D.=  1.47583546808790E-08
DEBUG_STATS_RL:    cg2d_b (SOLVE_FOR_PRESSURE)  min= -2.28843140836302E+04
DEBUG_STATS_RL:    cg2d_b (SOLVE_FOR_PRESSURE)  max=  2.38060746214646E+04
DEBUG_STATS_RL:    cg2d_b (SOLVE_FOR_PRESSURE) mean=  4.82566368883206E+00
DEBUG_STATS_RL:    cg2d_b (SOLVE_FOR_PRESSURE) S.D.=  3.91999996286145E+03
 cg2d: Sum(rhs),rhsMax =   4.69267261288738E-01  1.56364672013408E+00
(PID.TID 0000.0001)  cg2d: iter=     1 ; resid.=  7.19866520050963E-02
(PID.TID 0000.0001)  cg2d: iter=     2 ; resid.=  4.40142135162845E-02
(PID.TID 0000.0001)  cg2d: iter=     3 ; resid.=  4.50619644630975E-02
(PID.TID 0000.0001)  cg2d: iter=     4 ; resid.=  4.91844151423223E-02
(PID.TID 0000.0001)  cg2d: iter=     5 ; resid.=  4.96924209369932E-02
(PID.TID 0000.0001)  cg2d: iter=     6 ; resid.=  3.98299188250330E-02
(PID.TID 0000.0001)  cg2d: iter=     7 ; resid.=  2.95284400501272E-02
(PID.TID 0000.0001)  cg2d: iter=     8 ; resid.=  2.13386735413315E-02
(PID.TID 0000.0001)  cg2d: iter=     9 ; resid.=  1.66836894954084E-02
(PID.TID 0000.0001)  cg2d: iter=    10 ; resid.=  1.29797804582754E-02
(PID.TID 0000.0001)  cg2d: iter=    11 ; resid.=  1.01029742616900E-02
(PID.TID 0000.0001)  cg2d: iter=    12 ; resid.=  8.34770634734390E-03
(PID.TID 0000.0001)  cg2d: iter=    13 ; resid.=  7.03663670237508E-03
(PID.TID 0000.0001)  cg2d: iter=    14 ; resid.=  5.77632823145004E-03
(PID.TID 0000.0001)  cg2d: iter=    15 ; resid.=  5.01137733741990E-03
(PID.TID 0000.0001)  cg2d: iter=    16 ; resid.=  4.52205672932647E-03
(PID.TID 0000.0001)  cg2d: iter=    17 ; resid.=  4.07802455924048E-03
(PID.TID 0000.0001)  cg2d: iter=    18 ; resid.=  3.70992698915433E-03
(PID.TID 0000.0001)  cg2d: iter=    19 ; resid.=  3.04359856193902E-03
(PID.TID 0000.0001)  cg2d: iter=    20 ; resid.=  2.45423609176927E-03
(PID.TID 0000.0001)  cg2d: iter=    21 ; resid.=  2.00732625290556E-03
(PID.TID 0000.0001)  cg2d: iter=    22 ; resid.=  1.67247511396184E-03
(PID.TID 0000.0001)  cg2d: iter=    23 ; resid.=  1.39876256247028E-03
(PID.TID 0000.0001)  cg2d: iter=    24 ; resid.=  1.11878827469018E-03
(PID.TID 0000.0001)  cg2d: iter=    25 ; resid.=  9.19278169383259E-04
(PID.TID 0000.0001)  cg2d: iter=    26 ; resid.=  7.10861632799709E-04
(PID.TID 0000.0001)  cg2d: iter=    27 ; resid.=  5.86489722436802E-04
(PID.TID 0000.0001)  cg2d: iter=    28 ; resid.=  4.81154307233230E-04
(PID.TID 0000.0001)  cg2d: iter=    29 ; resid.=  3.91082942694694E-04
(PID.TID 0000.0001)  cg2d: iter=    30 ; resid.=  3.18608558503022E-04
(PID.TID 0000.0001)  cg2d: iter=    31 ; resid.=  2.86333173926796E-04
(PID.TID 0000.0001)  cg2d: iter=    32 ; resid.=  2.40162494721199E-04
(PID.TID 0000.0001)  cg2d: iter=    33 ; resid.=  1.95331281936743E-04
(PID.TID 0000.0001)  cg2d: iter=    34 ; resid.=  1.61203269079867E-04
(PID.TID 0000.0001)  cg2d: iter=    35 ; resid.=  1.26296488506096E-04
(PID.TID 0000.0001)  cg2d: iter=    36 ; resid.=  1.11412122722459E-04
(PID.TID 0000.0001)  cg2d: iter=    37 ; resid.=  9.81826200001620E-05
(PID.TID 0000.0001)  cg2d: iter=    38 ; resid.=  9.03282402359024E-05
(PID.TID 0000.0001)  cg2d: iter=    39 ; resid.=  8.07310532101842E-05
(PID.TID 0000.0001)  cg2d: iter=    40 ; resid.=  6.70390868243675E-05
(PID.TID 0000.0001)  cg2d: iter=    41 ; resid.=  4.82681499555054E-05
(PID.TID 0000.0001)  cg2d: iter=    42 ; resid.=  4.02573693762550E-05
(PID.TID 0000.0001)  cg2d: iter=    43 ; resid.=  3.92584135156295E-05
(PID.TID 0000.0001)  cg2d: iter=    44 ; resid.=  3.33778889013953E-05
(PID.TID 0000.0001)  cg2d: iter=    45 ; resid.=  2.51454359728909E-05
(PID.TID 0000.0001)  cg2d: iter=    46 ; resid.=  1.97673141910010E-05
(PID.TID 0000.0001)  cg2d: iter=    47 ; resid.=  1.60830059072796E-05
(PID.TID 0000.0001)  cg2d: iter=    48 ; resid.=  1.37190870326290E-05
(PID.TID 0000.0001)  cg2d: iter=    49 ; resid.=  1.27206065589489E-05
(PID.TID 0000.0001)  cg2d: iter=    50 ; resid.=  1.09772462087515E-05
(PID.TID 0000.0001)  cg2d: iter=    51 ; resid.=  9.57566575758984E-06
(PID.TID 0000.0001)  cg2d: iter=    52 ; resid.=  7.59499547518401E-06
(PID.TID 0000.0001)  cg2d: iter=    53 ; resid.=  6.51143955379286E-06
(PID.TID 0000.0001)  cg2d: iter=    54 ; resid.=  5.55741154195229E-06
(PID.TID 0000.0001)  cg2d: iter=    55 ; resid.=  4.59639898460976E-06
(PID.TID 0000.0001)  cg2d: iter=    56 ; resid.=  3.72438628175249E-06
(PID.TID 0000.0001)  cg2d: iter=    57 ; resid.=  3.03561419256637E-06
(PID.TID 0000.0001)  cg2d: iter=    58 ; resid.=  2.53480188494564E-06
(PID.TID 0000.0001)  cg2d: iter=    59 ; resid.=  1.88778637204572E-06
(PID.TID 0000.0001)  cg2d: iter=    60 ; resid.=  1.32753064247348E-06
(PID.TID 0000.0001)  cg2d: iter=    61 ; resid.=  1.02242992179012E-06
(PID.TID 0000.0001)  cg2d: iter=    62 ; resid.=  8.75622013876944E-07
(PID.TID 0000.0001)  cg2d: iter=    63 ; resid.=  7.26860866619746E-07
(PID.TID 0000.0001)  cg2d: iter=    64 ; resid.=  5.81710550649121E-07
(PID.TID 0000.0001)  cg2d: iter=    65 ; resid.=  4.79952356927840E-07
(PID.TID 0000.0001)  cg2d: iter=    66 ; resid.=  4.33596141420094E-07
(PID.TID 0000.0001)  cg2d: iter=    67 ; resid.=  3.68862544374141E-07
(PID.TID 0000.0001)  cg2d: iter=    68 ; resid.=  3.25785551576371E-07
(PID.TID 0000.0001)  cg2d: iter=    69 ; resid.=  2.82825626595831E-07
(PID.TID 0000.0001)  cg2d: iter=    70 ; resid.=  2.47440954859921E-07
(PID.TID 0000.0001)  cg2d: iter=    71 ; resid.=  1.99743173156748E-07
(PID.TID 0000.0001)  cg2d: iter=    72 ; resid.=  1.53442552953781E-07
(PID.TID 0000.0001)  cg2d: iter=    73 ; resid.=  1.27809983513811E-07
(PID.TID 0000.0001)  cg2d: iter=    74 ; resid.=  1.10408900923765E-07
(PID.TID 0000.0001)  cg2d: iter=    75 ; resid.=  9.11928804656517E-08
(PID.TID 0000.0001)  cg2d: iter=    76 ; resid.=  7.20038478072039E-08
(PID.TID 0000.0001)  cg2d: iter=    77 ; resid.=  5.60794896161756E-08
(PID.TID 0000.0001)  cg2d: iter=    78 ; resid.=  4.31519072526295E-08
(PID.TID 0000.0001)  cg2d: iter=    79 ; resid.=  3.59551625874337E-08
(PID.TID 0000.0001)  cg2d: iter=    80 ; resid.=  2.98486173411195E-08
(PID.TID 0000.0001)  cg2d: iter=    81 ; resid.=  2.34124554589303E-08
(PID.TID 0000.0001)  cg2d: iter=    82 ; resid.=  1.80822222820688E-08
(PID.TID 0000.0001)  cg2d: iter=    83 ; resid.=  1.31958402301972E-08
(PID.TID 0000.0001)  cg2d: iter=    84 ; resid.=  1.03214339150580E-08
(PID.TID 0000.0001)  cg2d: iter=    85 ; resid.=  7.10982822041170E-09
(PID.TID 0000.0001)  cg2d: iter=    86 ; resid.=  5.01825551354711E-09
(PID.TID 0000.0001)  cg2d: iter=    87 ; resid.=  4.07207887095841E-09
(PID.TID 0000.0001)  cg2d: iter=    88 ; resid.=  3.31279937113949E-09
(PID.TID 0000.0001)  cg2d: iter=    89 ; resid.=  2.68629836569822E-09
(PID.TID 0000.0001)  cg2d: iter=    90 ; resid.=  2.21100736932324E-09
(PID.TID 0000.0001)  cg2d: iter=    91 ; resid.=  1.84886301247729E-09
(PID.TID 0000.0001)  cg2d: iter=    92 ; resid.=  1.46499908935022E-09
(PID.TID 0000.0001)  cg2d: iter=    93 ; resid.=  1.17846601130974E-09
(PID.TID 0000.0001)  cg2d: iter=    94 ; resid.=  9.33932673645974E-10
(PID.TID 0000.0001)  cg2d: iter=    95 ; resid.=  6.67126214177773E-10
(PID.TID 0000.0001)  cg2d: iter=    96 ; resid.=  5.15534436147626E-10
(PID.TID 0000.0001)  cg2d: iter=    97 ; resid.=  4.25918847099363E-10
(PID.TID 0000.0001)  cg2d: iter=    98 ; resid.=  3.64428809432384E-10
(PID.TID 0000.0001)  cg2d: iter=    99 ; resid.=  3.12604846936114E-10
(PID.TID 0000.0001)  cg2d: iter=   100 ; resid.=  2.65688124163445E-10
(PID.TID 0000.0001)  cg2d: iter=   101 ; resid.=  2.34620037227332E-10
(PID.TID 0000.0001)  cg2d: iter=   102 ; resid.=  1.98771977687490E-10
(PID.TID 0000.0001)  cg2d: iter=   103 ; resid.=  1.55801729463436E-10
(PID.TID 0000.0001)  cg2d: iter=   104 ; resid.=  1.12348508829485E-10
(PID.TID 0000.0001)  cg2d: iter=   105 ; resid.=  8.74519694089039E-11
(PID.TID 0000.0001)  cg2d: iter=   106 ; resid.=  8.08308855940735E-11
(PID.TID 0000.0001)  cg2d: iter=   107 ; resid.=  6.02555086286689E-11
(PID.TID 0000.0001)  cg2d: iter=   108 ; resid.=  4.26229912069405E-11
(PID.TID 0000.0001)  cg2d: iter=   109 ; resid.=  3.13303356724242E-11
(PID.TID 0000.0001)  cg2d: iter=   110 ; resid.=  2.18809252934495E-11
(PID.TID 0000.0001)  cg2d: iter=   111 ; resid.=  1.71430788324234E-11
(PID.TID 0000.0001)  cg2d: iter=   112 ; resid.=  1.36848893445513E-11
(PID.TID 0000.0001)  cg2d: iter=   113 ; resid.=  1.04302519686250E-11
(PID.TID 0000.0001)  cg2d: iter=   114 ; resid.=  8.24030362762386E-12
(PID.TID 0000.0001)  cg2d: iter=   115 ; resid.=  6.09301724968044E-12
(PID.TID 0000.0001)  cg2d: iter=   116 ; resid.=  4.38580926449599E-12
(PID.TID 0000.0001)  cg2d: iter=   117 ; resid.=  3.64465446729940E-12
(PID.TID 0000.0001)  cg2d: iter=   118 ; resid.=  2.80978088291464E-12
(PID.TID 0000.0001)  cg2d: iter=   119 ; resid.=  2.17976056511542E-12
(PID.TID 0000.0001)  cg2d: iter=   120 ; resid.=  1.75128635988507E-12
(PID.TID 0000.0001)  cg2d: iter=   121 ; resid.=  1.38152076106748E-12
(PID.TID 0000.0001)  cg2d: iter=   122 ; resid.=  1.11039454720478E-12
(PID.TID 0000.0001)  cg2d: iter=   123 ; resid.=  7.77192673273475E-13
(PID.TID 0000.0001)  cg2d: iter=   124 ; resid.=  5.83235530421315E-13
(PID.TID 0000.0001)  cg2d: iter=   125 ; resid.=  4.25260901932337E-13
(PID.TID 0000.0001)  cg2d: iter=   126 ; resid.=  2.97255887680426E-13
(PID.TID 0000.0001)  cg2d: iter=   127 ; resid.=  2.09495194725623E-13
(PID.TID 0000.0001)  cg2d: iter=   128 ; resid.=  1.48014547436388E-13
(PID.TID 0000.0001)  cg2d: iter=   129 ; resid.=  1.00371693849511E-13
(PID.TID 0000.0001)  cg2d: iter=   130 ; resid.=  6.38007951715505E-14
DEBUG_STATS_RL:    cg2d_x (SOLVE_FOR_PRESSURE)  min= -1.85711510721324E+01
DEBUG_STATS_RL:    cg2d_x (SOLVE_FOR_PRESSURE)  max=  9.46994082709244E+00
DEBUG_STATS_RL:    cg2d_x (SOLVE_FOR_PRESSURE) mean= -1.85941856049268E+00
DEBUG_STATS_RL:    cg2d_x (SOLVE_FOR_PRESSURE) S.D.=  7.24114179219908E+00
(PID.TID 0000.0001)      cg2d_init_res =   2.57496973928291E-01
(PID.TID 0000.0001)      cg2d_iters(min,last) =      -1     130
(PID.TID 0000.0001)      cg2d_last_res =   6.38007951715505E-14
(PID.TID 0000.0001) // =======================================================
(PID.TID 0000.0001) // Begin MONITOR dynamic field statistics
(PID.TID 0000.0001) // =======================================================
(PID.TID 0000.0001) %MON time_tsnumber                =                    70
(PID.TID 0000.0001) %MON time_secondsf                =   6.0480000000000E+06
(PID.TID 0000.0001) %MON dynstat_eta_max              =   9.6533545638053E-01
(PID.TID 0000.0001) %MON dynstat_eta_min              =  -1.8930836974651E+00
(PID.TID 0000.0001) %MON dynstat_eta_mean             =  -5.0349816967534E-03
(PID.TID 0000.0001) %MON dynstat_eta_sd               =   6.4253534942596E-01
(PID.TID 0000.0001) %MON dynstat_eta_del2             =   2.4275764609577E-03
(PID.TID 0000.0001) %MON dynstat_uvel_max             =   1.4615623816255E-01
(PID.TID 0000.0001) %MON dynstat_uvel_min             =  -1.2235393726796E-01
(PID.TID 0000.0001) %MON dynstat_uvel_mean            =   2.2534117106760E-03
(PID.TID 0000.0001) %MON dynstat_uvel_sd              =   1.3009332333531E-02
(PID.TID 0000.0001) %MON dynstat_uvel_del2            =   8.0298809237387E-05
(PID.TID 0000.0001) %MON dynstat_vvel_max             =   1.4407116753447E-01
(PID.TID 0000.0001) %MON dynstat_vvel_min             =  -8.6355133941723E-02
(PID.TID 0000.0001) %MON dynstat_vvel_mean            =   3.0681870441704E-05
(PID.TID 0000.0001) %MON dynstat_vvel_sd              =   8.1337962804024E-03
(PID.TID 0000.0001) %MON dynstat_vvel_del2            =   7.1830168054762E-05
(PID.TID 0000.0001) %MON dynstat_wvel_max             =   1.4801904275338E-04
(PID.TID 0000.0001) %MON dynstat_wvel_min             =  -7.4420500443881E-05
(PID.TID 0000.0001) %MON dynstat_wvel_mean            =   9.7091994564900E-23
(PID.TID 0000.0001) %MON dynstat_wvel_sd              =   1.0149588856045E-05
(PID.TID 0000.0001) %MON dynstat_wvel_del2            =   1.0264477972468E-07
(PID.TID 0000.0001) %MON dynstat_theta_max            =   3.0769409686847E+01
(PID.TID 0000.0001) %MON dynstat_theta_min            =  -1.9530702759240E+00
(PID.TID 0000.0001) %MON dynstat_theta_mean           =   3.6238227960702E+00
(PID.TID 0000.0001) %MON dynstat_theta_sd             =   4.4257441163924E+00
(PID.TID 0000.0001) %MON dynstat_theta_del2           =   4.8708730039408E-03
(PID.TID 0000.0001) %MON dynstat_salt_max             =   3.7466366989617E+01
(PID.TID 0000.0001) %MON dynstat_salt_min             =   2.9889040850097E+01
(PID.TID 0000.0001) %MON dynstat_salt_mean            =   3.4718004101430E+01
(PID.TID 0000.0001) %MON dynstat_salt_sd              =   2.9652195713664E-01
(PID.TID 0000.0001) %MON dynstat_salt_del2            =   9.8765858402854E-04
(PID.TID 0000.0001) %MON dynstat_sst_max              =   3.0769409686847E+01
(PID.TID 0000.0001) %MON dynstat_sst_min              =  -1.9530702759240E+00
(PID.TID 0000.0001) %MON dynstat_sst_mean             =   1.9032876040600E+01
(PID.TID 0000.0001) %MON dynstat_sst_sd               =   9.1107139413713E+00
(PID.TID 0000.0001) %MON dynstat_sst_del2             =   2.8344289951506E-02
(PID.TID 0000.0001) %MON dynstat_sss_max              =   3.7454234191784E+01
(PID.TID 0000.0001) %MON dynstat_sss_min              =   2.9889040850097E+01
(PID.TID 0000.0001) %MON dynstat_sss_mean             =   3.4837671413684E+01
(PID.TID 0000.0001) %MON dynstat_sss_sd               =   9.8359297480981E-01
(PID.TID 0000.0001) %MON dynstat_sss_del2             =   8.0645481209533E-03
(PID.TID 0000.0001) %MON forcing_qnet_max             =   2.9129660034180E+02
(PID.TID 0000.0001) %MON forcing_qnet_min             =  -1.6565126647949E+02
(PID.TID 0000.0001) %MON forcing_qnet_mean            =  -8.6051029879044E+00
(PID.TID 0000.0001) %MON forcing_qnet_sd              =   5.0688573492058E+01
(PID.TID 0000.0001) %MON forcing_qnet_del2            =   8.5873863831928E-01
(PID.TID 0000.0001) %MON forcing_qsw_max              =   0.0000000000000E+00
(PID.TID 0000.0001) %MON forcing_qsw_min              =   0.0000000000000E+00
(PID.TID 0000.0001) %MON forcing_qsw_mean             =   0.0000000000000E+00
(PID.TID 0000.0001) %MON forcing_qsw_sd               =   0.0000000000000E+00
(PID.TID 0000.0001) %MON forcing_qsw_del2             =   0.0000000000000E+00
(PID.TID 0000.0001) %MON forcing_empmr_max            =   6.9143359837653E-05
(PID.TID 0000.0001) %MON forcing_empmr_min            =  -8.0869340024492E-05
(PID.TID 0000.0001) %MON forcing_empmr_mean           =   6.2925063892483E-07
(PID.TID 0000.0001) %MON forcing_empmr_sd             =   2.6455536925131E-05
(PID.TID 0000.0001) %MON forcing_empmr_del2           =   3.5991612840969E-07
(PID.TID 0000.0001) %MON forcing_fu_max               =   3.4590290188789E-01
(PID.TID 0000.0001) %MON forcing_fu_min               =  -3.5032370686531E-01
(PID.TID 0000.0001) %MON forcing_fu_mean              =   1.9891531763637E-02
(PID.TID 0000.0001) %MON forcing_fu_sd                =   9.8919389593516E-02
(PID.TID 0000.0001) %MON forcing_fu_del2              =   7.7806315234272E-04
(PID.TID 0000.0001) %MON forcing_fv_max               =   1.6034940332174E-01
(PID.TID 0000.0001) %MON forcing_fv_min               =  -1.8434488475323E-01
(PID.TID 0000.0001) %MON forcing_fv_mean              =  -7.4670053402277E-03
(PID.TID 0000.0001) %MON forcing_fv_sd                =   4.1889461618814E-02
(PID.TID 0000.0001) %MON forcing_fv_del2              =   4.7843997600298E-04
(PID.TID 0000.0001) %MON trAdv_CFL_u_max              =   4.7554768387876E-02
(PID.TID 0000.0001) %MON trAdv_CFL_v_max              =   2.7878470233728E-02
(PID.TID 0000.0001) %MON trAdv_CFL_w_max              =   3.1234770533206E-02
(PID.TID 0000.0001) %MON advcfl_uvel_max              =   4.8309842582800E-02
(PID.TID 0000.0001) %MON advcfl_vvel_max              =   2.7990717228217E-02
(PID.TID 0000.0001) %MON advcfl_wvel_max              =   3.5037932312033E-02
(PID.TID 0000.0001) %MON advcfl_W_hf_max              =   3.7614250864389E-02
(PID.TID 0000.0001) %MON pe_b_mean                    =   5.2832592039096E-04
(PID.TID 0000.0001) %MON ke_max                       =   1.1246579953887E-02
(PID.TID 0000.0001) %MON ke_mean                      =   1.0889842019519E-04
(PID.TID 0000.0001) %MON ke_vol                       =   1.3226782436723E+18
(PID.TID 0000.0001) %MON vort_r_min                   =  -2.9417393045736E-07
(PID.TID 0000.0001) %MON vort_r_max                   =   4.0634914564895E-07
(PID.TID 0000.0001) %MON vort_a_mean                  =  -2.5274807045438E-05
(PID.TID 0000.0001) %MON vort_a_sd                    =   7.3604647412592E-05
(PID.TID 0000.0001) %MON vort_p_mean                  =  -3.1845655355944E-05
(PID.TID 0000.0001) %MON vort_p_sd                    =   1.3162502429474E-04
(PID.TID 0000.0001) %MON surfExpan_theta_mean         =  -6.9382496597269E-08
(PID.TID 0000.0001) %MON surfExpan_salt_mean          =   6.3927770339358E-08
(PID.TID 0000.0001) // =======================================================
(PID.TID 0000.0001) // End MONITOR dynamic field statistics
(PID.TID 0000.0001) // =======================================================
(PID.TID 0000.0001) // =======================================================
(PID.TID 0000.0001) // Field Current uVel   at iteration         70
(PID.TID 0000.0001) // CMIN =         -1.223539372679581E-01
(PID.TID 0000.0001) // CMAX =          1.461562381625525E-01
(PID.TID 0000.0001) // CINT =          9.944821312241130E-03
(PID.TID 0000.0001) // SYMBOLS (CMIN->CMAX): -abcdefghijklmnopqrstuvwxyz+
(PID.TID 0000.0001) //                  0.0: .
(PID.TID 0000.0001) // RANGE I (Lo:Hi:Step):(     1:    90:     1)
(PID.TID 0000.0001) // RANGE J (Lo:Hi:Step):(    40:     1:    -1)
(PID.TID 0000.0001) // RANGE K (Lo:Hi:Step):(   1:   1:   1)
(PID.TID 0000.0001) // =======================================================
(PID.TID 0000.0001) K =   1
(PID.TID 0000.0001)                I=10      I=20      I=30      I=40      I=50      I=60      I=70      I=80      I=90
(PID.TID 0000.0001) |--J--|123456789|123456789|123456789|123456789|123456789|123456789|123456789|123456789|123456789|
(PID.TID 0000.0001)     40 lmlll..lllllllmlllm...................................................................llll
(PID.TID 0000.0001)     39 mmnmmmmmmmmmmm....l......................................................lll.........kjjkl
(PID.TID 0000.0001)     38 mnonmmmmmmmmm............................................................llll.......jjjklm
(PID.TID 0000.0001)     37 non...................................................................l....kl....jkjk..lmn
(PID.TID 0000.0001)     36 on..........................................kkl.....................llllllljjk..jjklmmmnno
(PID.TID 0000.0001)     35 on..................................lll...lkjjkl....klll............ll.....lkklkkmnooooppo
(PID.TID 0000.0001)     34 ....................................lkk..kkkkkll..mlklmmm...................nonoppqrrrqo..
(PID.TID 0000.0001)     33 .....................................lllkklmmmnnnnnoooonmml..................opqsttssrqnm.
(PID.TID 0000.0001)     32 .....................................klllmmnoppppoooooonnnm.................ppppqrqqponnn.
(PID.TID 0000.0001)     31 .....................................llmmnnooppppoonnnnnnnn...............nrspqqpponmmmm..
(PID.TID 0000.0001)     30 ....................................oppooopppppppoooooonnmm.............ooppppppponmllll..
(PID.TID 0000.0001)     29 ..................................ortsrrrrrrsrqqpppqppponmll............rqqppoonnmmlkkkj..
(PID.TID 0000.0001)     28 ................................oqsttrrsssssssrqpoppppponmlll..........rsqppoonmllkjjjkl..
(PID.TID 0000.0001)     27 ...............m...............nqqqppoopppqppponnmmmnnnmlkkkkl....llm..qqpponnmlkjjiii....
(PID.TID 0000.0001)     26 ...............nl............jjlnmlllkkklllllkkkkjkllllkkklkkmmm..llklmnnnnmmmllkkkjjj....
(PID.TID 0000.0001)     25 ...............onn....ml....mklmpomllkjjjjjkjjkjjkkllllmmmnmmmmmm....kllmmnmnnnnnmmmml....
(PID.TID 0000.0001)     24 .............onmnnn..nml....nn..nmllkjjjkkjjjkklllmmnmmnnmnmmmllllmm..mlkkmmnnoonnmmno....
(PID.TID 0000.0001)     23 .............lhhijk..khj....lm...ggfffefggfffghjjjjkllllllmlkjiiiiikl.....kkiijjjjjkmo....
(PID.TID 0000.0001)     22 l............cababcbddeg....l..ecdfdbbbcedcbcdehhhiikmnoponllkjijiiiii.......khfdegilppqnl
(PID.TID 0000.0001)     21 mmo.........fcdb--aacfijn......ffmlheedefggeffghhghghjklmlkjkllmmlkihi.........gbbfiknooon
(PID.TID 0000.0001)     20 kln........jhijiihgeilnmm.........mllkihklmllkkjjihfghgghgffgijjkjiggi..........gbeghijiik
(PID.TID 0000.0001)     19 kmn........igiijmnljkkllkmm....jn......mnoqppoonmlkihhgggedcddddffeeeg............hffggfgh
(PID.TID 0000.0001)     18 jmn........iffffijmlkljjklmljjjil....nppopqqqponnmmmkjiiihhfeeeeffeeefk...........ljhhghhh
(PID.TID 0000.0001)     17 jkm..........hhiiilkmolklnmkjjj......nnnmmnnnnnmlllllkkjjjkjiiiiiihhiij..........nmljihiji
(PID.TID 0000.0001)     16 kkk.......l..kiiijjiklljjlmmlk........lkkkklklllkkkkkjkjjjjjkkjkkkkkklll.........mlkjiijjj
(PID.TID 0000.0001)     15 iihi.....lm..mllmmjjkklkjklmo..........kjklkkmnnmllllllkkjkkjjkklkkkkkjkk.......lllkjjjiii
(PID.TID 0000.0001)     14 hgef.....ljjmoppppoonlnlkkkjm..........mllmnoppppppqqppoooonllllllkkkjiij......lnonnmmljji
(PID.TID 0000.0001)     13 kigf.....mmmnpppqqqpnmonlljij..........oooopqqqqqqrrrrrrrrrqqpnmmnnmlljik.....lmoopppponml
(PID.TID 0000.0001)     12 mlkjjkkjknoooonnooonnnonmlkkkkllll.....noooopppppppppppppqppqpnmmnnmmlkk......mnooppqqqpon
(PID.TID 0000.0001)     11 nnmllkkmoqqqqqpooopooooonmmllmmmmll...mmmmm..nonnmmmnnnmmmnnnnmlmmmmmmlk.....lnoppppqqpoon
(PID.TID 0000.0001)     10 qpoooprrstvvuuutttttrqqqqqpoooonmmll..mmmmm..oomllllmmmllllmmmmmnnnnnnmm...nmnopqqqrrrrqqq
(PID.TID 0000.0001)      9 uttttuuuuwwwuuvwuuvvuuuuuuutssrqqqppoooonm..ooonnnnnnnnoooooooooppoooonl..mnnprsssttuuvvuu
(PID.TID 0000.0001)      8 vwxyxwvuvvvvuuuttsstvwwwwwwwwvvvwwxyxwvusrqrrrrssttttttttttsrrrrrrrqqqpn..nnnqrsrsuuuvvwvv
(PID.TID 0000.0001)      7 tuvvutssttstsssssrqqstttuuuuuuvwwxyz+zzyyxxvtttuuvwxyyyxwwvutttttttttttutqrqrrrrqqrrrsssss
(PID.TID 0000.0001)      6 pppoppqqqqqqppppqqqoooopqrrrssttuuuuuuvwxyywvuuuvvvwxyyxwvttsttuuuuvvvvwxxwxxwusqppppppppp
(PID.TID 0000.0001)      5 llllmnoooonnnmmnnnnnmmmmmmnoopppppppppqstuvvuttttttttssssssssssssttttuuuutsstsqpoonnnnnnmm
(PID.TID 0000.0001)      4 kkjjklllmlllllllmmmmmlllllllmmmmmmmmmmmnnoppqqqqpppoonnnoopqqqqqqqqqqqqpon...lmmllllllllkk
(PID.TID 0000.0001)      3 kkkkkkkkll.............................llllllmmmmllllllllmmmmmnnnnmmmmmmm...lkllllllllllll
(PID.TID 0000.0001)      2 ...........................................llllllllllkklllllllll...lll......lmlllllllll...
(PID.TID 0000.0001)      1 ..........................................................................................
(PID.TID 0000.0001) // =======================================================
(PID.TID 0000.0001) // END OF FIELD                                          =
(PID.TID 0000.0001) // =======================================================
(PID.TID 0000.0001) 
(PID.TID 0000.0001) // =======================================================
(PID.TID 0000.0001) // Field Current vVel   at iteration         70
(PID.TID 0000.0001) // CMIN =         -8.635513394172295E-02
(PID.TID 0000.0001) // CMAX =          1.440711675344723E-01
(PID.TID 0000.0001) // CINT =          8.534307462081305E-03
(PID.TID 0000.0001) // SYMBOLS (CMIN->CMAX): -abcdefghijklmnopqrstuvwxyz+
(PID.TID 0000.0001) //                  0.0: .
(PID.TID 0000.0001) // RANGE I (Lo:Hi:Step):(     1:    90:     1)
(PID.TID 0000.0001) // RANGE J (Lo:Hi:Step):(    40:     1:    -1)
(PID.TID 0000.0001) // RANGE K (Lo:Hi:Step):(   1:   1:   1)
(PID.TID 0000.0001) // =======================================================
(PID.TID 0000.0001) K =   1
(PID.TID 0000.0001)                I=10      I=20      I=30      I=40      I=50      I=60      I=70      I=80      I=90
(PID.TID 0000.0001) |--J--|123456789|123456789|123456789|123456789|123456789|123456789|123456789|123456789|123456789|
(PID.TID 0000.0001)     40 iknom.jijjjjkk...jj..................................................................jiiii
(PID.TID 0000.0001)     39 jklmlkjiiijkk...........................................................jijk........gjjjkj
(PID.TID 0000.0001)     38 kmm.......................................................................jjj......ig.llkk
(PID.TID 0000.0001)     37 mn...................................................................jj...iii...fimlk.kljj
(PID.TID 0000.0001)     36 ll.........................................lmlk....................jjj....hfgi.edilkjiikkj
(PID.TID 0000.0001)     35 ...................................jjkj..kklmllk...hhlmm...................efggghijjiikm..
(PID.TID 0000.0001)     34 ....................................iij.jjjjjkkj.ihijkmml...................gehijkkkjhjj..
(PID.TID 0000.0001)     33 ....................................iiijjiiiijiiihhijkkkklk.................mgiklllljhgik.
(PID.TID 0000.0001)     32 ....................................iihhhhhhhihgggghhhiiiij................omhjkkjjjihhj..
(PID.TID 0000.0001)     31 ....................................jhgfffeeefeddddddeeffgi..............ikjhghhhghhiijj..
(PID.TID 0000.0001)     30 ...................................jiecbbba-abbbbbbbccddeef............nmhhfeefefffgijjj..
(PID.TID 0000.0001)     29 .................................jihgdb-bba-acddedeefffffedf...........mkhfeeeghhhhiijjj..
(PID.TID 0000.0001)     28 ...............................nnlkihgffgggghiiijjjkkjjiihfef.........llkjjjjjjjjijjjj....
(PID.TID 0000.0001)     27 ..............jj..............mllllmlllmnmlllkklmmlllkkkjihggh...kkmo.lnmnnmkjjkkkjjij....
(PID.TID 0000.0001)     26 ..............jjj...........gimljjllmmmmmmlkjjjkkkjjjjjjjjijjjkk....onmlkkkkjiijkkiijk....
(PID.TID 0000.0001)     25 ..............nnmj...jjj...jij.kjkllmmmmllmllllmmllllmnnnononmmlk....nllmmmnnooopooonl....
(PID.TID 0000.0001)     24 ............orsrpli.llll...lmm..mnqstuvvuttttttttttttuvxxwvtrponmmml.....ssrtuvvvuutrl....
(PID.TID 0000.0001)     23 ............ovvtrnn.koqp...kl...hmsvxyz+zxwxxxxwvvvvvwwwwwvurponmmmmm.......rtwwvvuuuo....
(PID.TID 0000.0001)     22 j...........kpqrqnmljnpr......hfffjnqrtutsrrqqqqqqrrsttuwvvtqonmmllmlj........oqsutsroklmk
(PID.TID 0000.0001)     21 iih........mnpqpnkjjiklmk......b.bdgikmmlllkjjklmmmnnoprrrssqonnmllkif.........kntspnnmmlk
(PID.TID 0000.0001)     20 ggi.......lnqqpmiggffhige......e......khgfgggghjkjjjkjklkjjklkjiiiiiji...........spmlllljh
(PID.TID 0000.0001)     19 eeh.......jlqpkdabbccceedgi...ggj.....mkjjjjjkkllllmmlkjigfffeddeefghi...........lkhgihgfe
(PID.TID 0000.0001)     18 dfh.......i.qrkedfghhffgghijkli.....kmoonnnnonnnnnnoomkjihgfedcdddddeei..........kkiiheccd
(PID.TID 0000.0001)     17 fgi.......l.mqlkjgijijihijkkjj.......llllmmmmnnmnnmmmnmlkjjjihggffffggi.........jkkjjigeff
(PID.TID 0000.0001)     16 mmn......om.ijihgegihfghijjhi.........iihhhiiiiiijjjjjiijjjiijjjiiiijkkl........hijjkllkkl
(PID.TID 0000.0001)     15 moqm....ikl.deededeigcdfhjihi.........gfeeeeeffffggggggfgghghjjjihijkmook......gfggghiijkk
(PID.TID 0000.0001)     14 lmnm....fhkfegfedegjhdehjjiii.........gfgggffggffgggffffghhhillkjijklmool.....ghhhhghijkll
(PID.TID 0000.0001)     13 onmm....eimljkkjijkljhilnljjj.........hhklkjiiiiiiiihiiiijkjlmlmmmlmmmml.....hhjklljkllnoo
(PID.TID 0000.0001)     12 oonmmihhfjnommnnmlmnmklmnmllkjjjjk....jklll.iikkkkjjjjjkkkllmmlmoommmmmk.....hkllmnmmnnopp
(PID.TID 0000.0001)     11 nnmmjiihhilnkikkkkkkkklllmmmkkkkkll..jikkkk.jjjjkkjjjjjkllkllkkloonllllk....himmlkkkjkklnn
(PID.TID 0000.0001)     10 lkllkjiijmoolihikjhghjlkkkklkjjjiilm.iijji..mjihijjjjiijklllkjjlnonllkkk..mojknnljjjhhijkl
(PID.TID 0000.0001)      9 kkkmmljikmnnnmjimqkgikmmlkkkkjiiihjnljijjj.onjhhijiiiiiijlmmkjjlnnnmlkij.lnpnnppmkkjiijllk
(PID.TID 0000.0001)      8 mmmmmlkklmmnnnmklrqmlmmnnnmmlklkkklomkiiikpqnlllmlkkkkkmmmmmlklmnnnmmlhj.mnqrssromlkklmmnn
(PID.TID 0000.0001)      7 oomllllmmmmmnmmmlnrqommnnnmmmmnnnnopnkihilopponooonmlkklmmmnmmmmnnnnmmmmpqprttsqonmllmnnop
(PID.TID 0000.0001)      6 nlkjkklmmlllllkklmnonmmmlkklmmnnmmnnmlkjklnnoopqppppnljjjklnnnmmnoonnnopqrqqqoonmlllllmnnn
(PID.TID 0000.0001)      5 kjiiiijkkjiiiiiijkkkkjjhhhhijjjjjjjkkkkkkllllmopooonmlkjjjlmmmllmmnnmnnnmm..lkllkkkkkklkkk
(PID.TID 0000.0001)      4 gfffgfffgh............................jiijjjjkllmllkkjjjkklllkkjkkkkkkjjj...kjjjjjjjjjjiih
(PID.TID 0000.0001)      3 ..........................................jjjiijjjjiiiijjjjiihhi..jiii.....jjkjiiiiijii...
(PID.TID 0000.0001)      2 ..........................................................................................
(PID.TID 0000.0001)      1 ..........................................................................................
(PID.TID 0000.0001) // =======================================================
(PID.TID 0000.0001) // END OF FIELD                                          =
(PID.TID 0000.0001) // =======================================================
(PID.TID 0000.0001) 
(PID.TID 0000.0001) // =======================================================
(PID.TID 0000.0001) // Field Current theta  at iteration         70
(PID.TID 0000.0001) // CMIN =         -1.953070275924018E+00
(PID.TID 0000.0001) // CMAX =          3.076940968684710E+01
(PID.TID 0000.0001) // CINT =          1.211943702324856E+00
(PID.TID 0000.0001) // SYMBOLS (CMIN->CMAX): -abcdefghijklmnopqrstuvwxyz+
(PID.TID 0000.0001) //                  0.0: .
(PID.TID 0000.0001) // RANGE I (Lo:Hi:Step):(     1:    90:     1)
(PID.TID 0000.0001) // RANGE J (Lo:Hi:Step):(    40:     1:    -1)
(PID.TID 0000.0001) // RANGE K (Lo:Hi:Step):(   1:   1:   1)
(PID.TID 0000.0001) // =======================================================
(PID.TID 0000.0001) K =   1
(PID.TID 0000.0001)                I=10      I=20      I=30      I=40      I=50      I=60      I=70      I=80      I=90
(PID.TID 0000.0001) |--J--|123456789|123456789|123456789|123456789|123456789|123456789|123456789|123456789|123456789|
(PID.TID 0000.0001)     40 -bbccba-------abcddbbbbbbbbbbbbbbbbbbbbbbbbbbbbbbbbbbbbbbbbbbbbbbbbbbbbbbbbbbbbbbbbbbaaa--
(PID.TID 0000.0001)     39 bbccccbbaa----bbbddbbbbbbbbbbbbbbbbbbbbbbbbbbbbbbbbbbbbbbbbbbbbbbbbbbbbb----bbbbbbbbbaaaaa
(PID.TID 0000.0001)     38 deeeeecccbaa-bbbbbbbbbbbbbbbbbbbbbbbbbbbbbbbbbbbbbbbbbbbbbbbbbbbbbbbbbbb-----bbbbbba---bcd
(PID.TID 0000.0001)     37 ffgbbbbbbbbbbbbbbbbbbbbbbbbbbbbbbbbbbbbbbbbbbbbbbbbbbbbbbbbbbbbbbbbbbbbbbba-abbbcbeeebcdde
(PID.TID 0000.0001)     36 ggbbbbbbbbbbbbbbbbbbbbbbbbbbbbbbbbbbbbbbbbbba--bbbbbbbbbbbbbbbbbbbbccccbaaabbdbceffghhhggg
(PID.TID 0000.0001)     35 ffbbbbbbbbbbbbbbbbbbbbbbbbbbbbbbbbb----bbbbcccb-bbbddeefbbbbbbbbbbbbbbbbbbbcddddefghhiiihg
(PID.TID 0000.0001)     34 bbbbbbbbbbbbbbbbbbbbbbbbbbbbbbbbbbb----baccccccdbccedefffbbbbbbbbbbbbbbbbbbbabdeffghiijibb
(PID.TID 0000.0001)     33 bbbbbbbbbbbbbbbbbbbbbbbbbbbbbbbbbbbb--abbcccccdddeeeefffgghbbbbbbbbbbbbbbbbbaacghijjkkkjjb
(PID.TID 0000.0001)     32 bbbbbbbbbbbbbbbbbbbbbbbbbbbbbbbbbbbb-abbccddddeefgggggghhhibbbbbbbbbbbbbbbbdcaaiklllllkkjb
(PID.TID 0000.0001)     31 bbbbbbbbbbbbbbbbbbbbbbbbbbbbbbbbbbbbdeffggghhihhhiiiijjjjjjbbbbbbbbbbbbbbhilkgjlmmmmmlllbb
(PID.TID 0000.0001)     30 bbbbbbbbbbbbbbbbbbbbbbbbbbbbbbbbbbbkkjjjkkkkkkkkkkklllmmmllbbbbbbbbbbbbmmnoooooooooonnnnbb
(PID.TID 0000.0001)     29 bbbbbbbbbbbbbbbbbbbbbbbbbbbbbbbbbnnnnnnnnnnnnnnnnnnnnoooonmmbbbbbbbbbbboqqqqqpppppppoooobb
(PID.TID 0000.0001)     28 bbbbbbbbbbbbbbbbbbbbbbbbbbbbbbbmoppppppoppppppppppppqqqqponnnbbbbbbbbbrrrrrrrrqqqqqpppppbb
(PID.TID 0000.0001)     27 bbbbbbbbbbbbbbuubbbbbbbbbbbbbbqqrrrrsrrrrsssssssssssssrrqqppppbbbrrssbttttttttssssrrrqbbbb
(PID.TID 0000.0001)     26 bbbbbbbbbbbbbbuttbbbbbbbbbbbtstttttuuuuuuuuuuuutuuuttsssrrqqqrsubttuvuuuuuuuuuuttssrrqbbbb
(PID.TID 0000.0001)     25 bbbbbbbbbbbbbbuuvvbbbwvwbbbuuvvvvvwwwwwwwvvvvvvuvuuuuttttsssstuvwbbbvvvvvvuuuuuutssrqqbbbb
(PID.TID 0000.0001)     24 bbbbbbbbbbbbvvvvwxybwwwxbbbwwwbwwwxxxwwwwwvvvwvvvvvvvvvvvvvvvvwwwvvwbwvvvvvvuvuuutttssbbbb
(PID.TID 0000.0001)     23 bbbbbbbbbbbbwvwxxyybwwxxbbbxwwbbwxxxxxxxxxwwwwwwwwwwwwwwwwwwwvwwwwwwvbbbbwvvvvwvvvvvvvbbbb
(PID.TID 0000.0001)     22 wbbbbbbbbbbbwwwxxxyyxxyybbbxxbzyyyxyyyyyyyxxxxxxxxxxxxxwwwwwwwwwwwwvvwbbbbbbxwwwwwxxxxxxxw
(PID.TID 0000.0001)     21 wvvbbbbbbbbxxxxxxxyyyzz++bbbbbzyzzzzzzzzzzzyyyyyyyyyyyxxxxxxxxxxxwwvvvbbbbbbbbyxxyyyyzzyxw
(PID.TID 0000.0001)     20 wwvbbbbbbbyyyyyyyyzzzzzz+bbbbbbzbzzzzz++++zzzzzzzzzzyyyyxxxxxxxxxxxwwvbbbbbbbbbyyyyyyyyxxx
(PID.TID 0000.0001)     19 vvwbbbbbbbzzzyyyzyyzzyzyzzybbbzzzbbbbb++zz++zzzzzzzzyyyxxxxxwwwvvwwvvvbbbbbbbbbbbyxxwwwvww
(PID.TID 0000.0001)     18 vuubbbbbbbzzyxxxxyyyyyyyyyzzzz+zzbbb++zzzz+zzzzzzzzzyyyyxxxxwwwvvvvvuutbbbbbbbbbbyxxwwvvwv
(PID.TID 0000.0001)     17 uusbbbbbbbzbyxxxxxxyyyyxyyyyyzzbbbbbzzzzzzzzzzzzzzzzyyyyxxxxwwwvuvvuttvbbbbbbbbbxyyxxwuvvu
(PID.TID 0000.0001)     16 utsbbbbbbyzbyxxxxwxwxxxwwxxxyzbbbbbbbyxyyyyzzyyzyyyyyyyxxxxxxwwwvvvuutttbbbbbbbbyyyyxwvvvu
(PID.TID 0000.0001)     15 tssrbbbbwxxbwxxwwwwwwwwvvvvvxbbbbbbbbbwwxxxxxxxxxxxxxxxxxyyyxwwwwvvuttssrbbbbbbxxyxxxxxwvu
(PID.TID 0000.0001)     14 utrqbbbbwxwvwwwvwwwvuuuuttttubbbbbbbbbvwvwwwwwwwwwxxxxxwxxxxxwwwvvvvtssssbbbbbwwxxxxxxwwvu
(PID.TID 0000.0001)     13 uttrbbbbwxwvwwvuvvvvuuutsstssbbbbbbbbbuvvvvvvvvvvvvvvvwvwwwxxwvvvuuuussspbbbbvvwwwwwwwwvvu
(PID.TID 0000.0001)     12 tsssssrsuvutuutttssstutsrssrrqqrrqbbbbtuuutttttsststttttttuvuutttstttsrrbbbbbtvvvuuuuuuttt
(PID.TID 0000.0001)     11 qppqqrrsssrrrsrqqqppprrppqpppqqqqqqbbsstsssbrrrrrrrrrrrrrrssqqrrrqrrrrqpbbbbpqstssrrsrrrqq
(PID.TID 0000.0001)     10 mmllmnopppoooponnmnnmnnmmmmlmnnooppobqrrqrqbpqqqqqqpppqpppppooppoooopppobbopppppooonopoonn
(PID.TID 0000.0001)      9 jjiiijjjjjkkkkjjjijjjjjiiijjijkklmnmmnooopbnnoooooooooooonmmmmnnmmllmmmmbmnnnnmmlllkkllkjj
(PID.TID 0000.0001)      8 ggggggghhgghiiiihgghhihgghhhhiijjjkkkkllmmmllllllllmmmllllkkkjkkkkkkkklkbkllkkkjiiihhhhggf
(PID.TID 0000.0001)      7 eeeeffffggfffggggfffffeeffgggggghhhhhiijkkkjjjkkkjjjiiiiiiiiiiiiiiiiijjjiijiiihhgfffffeeee
(PID.TID 0000.0001)      6 ddddeeeeeeeeeefeffeeeeeffeeeeeefffffggghhhihhhhiihggffgggggggffgghhhhhhhhhhhhggfeeeeeddddd
(PID.TID 0000.0001)      5 dddeeedddeeeeeeeeeeeeeeedddeeeeeeeeeeefffffgffffffeddeeeeeeeeeeefefffffffffeeeeddddddddccd
(PID.TID 0000.0001)      4 ddddddcccddcccccccccccccbbbccccccccccccddddddddcdddddddddddcddddddddddddddbbbbbccccddccccd
(PID.TID 0000.0001)      3 ccccbbbaaabbbbbbbbbbbbbbbbbbbbbbbbbbbbbbbbbbcccccccccccbbbbbbbbbbbbbbbbbbbbbbaaabbcccccbbb
(PID.TID 0000.0001)      2 bbbbbbbbbbbbbbbbbbbbbbbbbbbbbbbbbbbbbbbbbbbbbbcbbbbbbaaaaaaaaaaabbaaaabbbbbaaaaaabbbbbbbbb
(PID.TID 0000.0001)      1 bbbbbbbbbbbbbbbbbbbbbbbbbbbbbbbbbbbbbbbbbbbbbbbbbbbbbbbbbbbbbbbbbbbbbbbbbbbbbbbbbbbbbbbbbb
(PID.TID 0000.0001) // =======================================================
(PID.TID 0000.0001) // END OF FIELD                                          =
(PID.TID 0000.0001) // =======================================================
(PID.TID 0000.0001) 
(PID.TID 0000.0001) // =======================================================
(PID.TID 0000.0001) // Field Current etaN   at iteration         70
(PID.TID 0000.0001) // CMIN =         -1.893083697465059E+00
(PID.TID 0000.0001) // CMAX =          9.653354563805291E-01
(PID.TID 0000.0001) // CINT =          1.058673760683551E-01
(PID.TID 0000.0001) // SYMBOLS (CMIN->CMAX): -abcdefghijklmnopqrstuvwxyz+
(PID.TID 0000.0001) //                  0.0: .
(PID.TID 0000.0001) // RANGE I (Lo:Hi:Step):(    -1:    92:     1)
(PID.TID 0000.0001) // RANGE J (Lo:Hi:Step):(    42:    -1:    -1)
(PID.TID 0000.0001) // RANGE K (Lo:Hi:Step):(   1:   1:   1)
(PID.TID 0000.0001) // =======================================================
(PID.TID 0000.0001) K =   1
(PID.TID 0000.0001)                I=8       I=18      I=28      I=38      I=48      I=58      I=68      I=78      I=88
(PID.TID 0000.0001) |--J--|101234567|901234567|901234567|901234567|901234567|901234567|901234567|901234567|901234567|9012
(PID.TID 0000.0001)     42 ............................................bbbbcccccdddddddccccdd..eddd.....aaaaaabbbaaa.....
(PID.TID 0000.0001)     41 ..............................................................................................
(PID.TID 0000.0001)     40 jjjijjj.kkkkkkkkkkkkk..................................................................jkjjjji
(PID.TID 0000.0001)     39 jjiiijjkkkkjkkkk...jj.....................................................hhhh........kkjjjjii
(PID.TID 0000.0001)     38 jjjjkkkkkkkkkkk...........................................................hhhhh......kjjjjjjjj
(PID.TID 0000.0001)     37 kkkkl..................................................................kk...iii...jjiji.jkkkkk
(PID.TID 0000.0001)     36 kkkm.........................................qqqp....................kkklkjjiiih.kihhijkjkkkkm
(PID.TID 0000.0001)     35 llll.................................pppp..pqpqqqq...trrrs...........kll....jhhhhhghhijjkkllll
(PID.TID 0000.0001)     34 .....................................qppp.qqppqqqq.rqqqqqrs..................jihhhhhijkkln....
(PID.TID 0000.0001)     33 m.....................................qqpqqqqppqqqqqqqqqrrrst.................ljiiijkklmllm...
(PID.TID 0000.0001)     32 n.....................................qqpppqqqqqrrrrrrrrrssss................flkkklmmmmmmmn...
(PID.TID 0000.0001)     31 ......................................pqqqqqqrrrsrrsssssttttt..............klmmmmmmnnnnmmm....
(PID.TID 0000.0001)     30 .....................................qrsssssssssttttttttuuuut............jmmnoppppoooonnnn....
(PID.TID 0000.0001)     29 ...................................tuuvvvvvvvvuuuuvuuuuuvvvuts...........npqqqqqqpppooonnn....
(PID.TID 0000.0001)     28 .................................uvwxxyyxxxxxxwwwwvvvvvvvvvuutt.........pqqrrqqqqppppoonnn....
(PID.TID 0000.0001)     27 ................rr..............xxxyyyyyyyyyyxxxwwwwwwwvvvvuuutt...rrrr.rrrrrqqqppppooon......
(PID.TID 0000.0001)     26 ................rrs...........zyyyyyzzzyyyzyyyxxxwwwwwwwwvvvuutttu.rrrssssssrrrqqqpppoon......
(PID.TID 0000.0001)     25 ................ssst...uuu...zyyyzzzzzzyzzzyyyxxxxwwwwwwwvvvuuuuuuv...sstssssrrqqqpppoon......
(PID.TID 0000.0001)     24 ..............ssssttt.uuuu...zyy.+zyyyyyyyyyxxxwwwwwwwwvvvuuuuuuuvuuuu.ssssrrrrqqqpppooo......
(PID.TID 0000.0001)     23 ..............tsstttt.uuuu...zzy..yxxxwxxxxxxwwwwwwwwwwvvvuuuuuuuuuuuuu....rrrrqqqqppppp......
(PID.TID 0000.0001)     22 qqq...........ttttttuuuuuu...zz.yyyxxwwwxxxxxxxwwwwwwwwwwwvvvvvvuuuuuuuu......rrqqqqqqqqqqqqq.
(PID.TID 0000.0001)     21 qqqqp........ttttttttuuuvvv.....yyyyyxxxxxxxxxxxxxxxxxxxwwwwvvvvvuuuuuuu........rrrrrrrrrqqqqq
(PID.TID 0000.0001)     20 qpppp.......uuuuuttttuuuuvv......y.yzzzzyyyyyyxyxxxxxxxwwwvvvvvvvuuuuuuu.........rrrrrrqqqqppp
(PID.TID 0000.0001)     19 ppppq.......vuuttttttuuuuuuuu...wxx.....yyyyyxxxxxxxwwwwwvvvvuuuutttuutt...........srqqqpppppp
(PID.TID 0000.0001)     18 ppppp.......vvuuttttuuuuuuuuuuvvwxx...yzyyxyxxxxxxxxxxwwwvvvvuuuutttttttt..........srqqppppppp
(PID.TID 0000.0001)     17 poooo.......w.wvuuuuuvvvuuuuuuvvv.....yyyxxxxxxxxxyxxxxxwwwwwvvvuutuuuttt.........tsrrqqpppooo
(PID.TID 0000.0001)     16 qppoo......xw.xwvvvvvvuvvuuuuuuv.......yxxxxxxxxxxyyxxxxxxwwwwwwvvuuuuuttt........ssssrrqqqppo
(PID.TID 0000.0001)     15 rqqpoo....xwv.wwwwvvwvuuuuutttu.........wwwxxxxxxxxxxxxxxxxxxwwwwvvvuuuttss......sstsssssrrqqp
(PID.TID 0000.0001)     14 rrqqpo....wwvuvvvvuuvuttuttssss.........wwwwwwwwwwwwwwxxxxxxxxxxwvvvvvuutss.....rssssstsssrrqq
(PID.TID 0000.0001)     13 ssrqqo....vwvvvvuuuuutttuutssrr.........uvvvvvvvvvvvvvvwwwwwxxxxwwwvvvuutss....qrsssssttttssrq
(PID.TID 0000.0001)     12 ssrrqqpnqsuwvuuvuuutttttuttssrrrrrrr....tuuuuttuuuuuuuuuvvvvvvwvwwwvuuutts.....rrrsssssstsssrr
(PID.TID 0000.0001)     11 rrqqpppqrstuuutuuttttssstsssrrrrrrrrr..sttttt.sttttsttuuuuuuuuuuvwvuutttss....oqqqqqqqrrrrrrqq
(PID.TID 0000.0001)     10 pooooonoopqqqpppqqqppqqqqqqqqppqqqqrrr.rssstu.rsrssttttuuuuttttuuvutssssss..qnoponnnnnoppppooo
(PID.TID 0000.0001)      9 lllllllkkllllkkkkllkklmnmmnnnnnnopprrrqqrrrs.srqrssssttttuuutssttttsrrrrrr.oponnmlkjkjklllllll
(PID.TID 0000.0001)      8 ggghhhgggghhhhhgghjhfhiijijjjkkklmmnopoppqrstqpppqqqrrssssssrrrrsssrqqqqrv.oomlkjhgggggghhgggh
(PID.TID 0000.0001)      7 dddccccdeeeeeeeeeffgfeeeeffffghhhiijjjijkmnoonnnnnnnnnooppoooooopppppopppqqoonljhgeedddddddddc
(PID.TID 0000.0001)      6 baa-aabbccccccccddeeedccddddeeeefeeffeefghjkkkkkkkjjjiiijjkkllllllmmlllmmmlkjjhgedcccccccbbaa-
(PID.TID 0000.0001)      5 aa--aaabbbbbbbbbccccccccbbbbccccccccdddddeefffggggfffeddeffghiihiiiihhhhhhgfdcbbbaaaaaaaaaaa--
(PID.TID 0000.0001)      4 aaaaaaaabbbbbccccccbccccccccccccccccbbbccccccccddcccccccddeeeeeefffffeeeeeee..-aaaaaaaaaaaaaaa
(PID.TID 0000.0001)      3 aabbbbbbbbbb............................bbccbbcccccccccccdddcccdddddddddeee..baaaaaaaaaaaaaabb
(PID.TID 0000.0001)      2 ............................................bbbbcccccdddddddccccdd..eddd.....aaaaaabbbaaa.....
(PID.TID 0000.0001)      1 ..............................................................................................
(PID.TID 0000.0001)      0 jjjijjj.kkkkkkkkkkkkk..................................................................jkjjjji
(PID.TID 0000.0001)     -1 jjiiijjkkkkjkkkk...jj.....................................................hhhh........kkjjjjii
(PID.TID 0000.0001) // =======================================================
(PID.TID 0000.0001) // END OF FIELD                                          =
(PID.TID 0000.0001) // =======================================================
(PID.TID 0000.0001) 
(PID.TID 0000.0001)  MDS_WRITE_FIELD: it,rec,kS,kL,kH=      70     1  15   1  15 file=U.0000000070
(PID.TID 0000.0001)  MDS_WRITE_FIELD: it,rec,kS,kL,kH=      70     1  15   1  15 file=V.0000000070
(PID.TID 0000.0001)  MDS_WRITE_FIELD: it,rec,kS,kL,kH=      70     1  15   1  15 file=T.0000000070
(PID.TID 0000.0001)  MDS_WRITE_FIELD: it,rec,kS,kL,kH=      70     1  15   1  15 file=S.0000000070
(PID.TID 0000.0001)  MDS_WRITE_FIELD: it,rec,kS,kL,kH=      70     1   1   1   1 file=Eta.0000000070
(PID.TID 0000.0001)  MDS_WRITE_FIELD: it,rec,kS,kL,kH=      70     1  15   1  15 file=W.0000000070
(PID.TID 0000.0001)  MDS_WRITE_FIELD: it,rec,kS,kL,kH=      70     1  15   1  15 file=PH.0000000070
(PID.TID 0000.0001)  MDS_WRITE_FIELD: it,rec,kS,kL,kH=      70     1   1   1   1 file=PHL.0000000070
(PID.TID 0000.0001)  MDS_WRITE_FIELD: it,rec,kS,kL,kH=      70     1   1   1   1 file=ETAtave.0000000070
(PID.TID 0000.0001)  MDS_WRITE_FIELD: it,rec,kS,kL,kH=      70     1  15   1  15 file=Ttave.0000000070
(PID.TID 0000.0001)  MDS_WRITE_FIELD: it,rec,kS,kL,kH=      70     1  15   1  15 file=Stave.0000000070
(PID.TID 0000.0001)  MDS_WRITE_FIELD: it,rec,kS,kL,kH=      70     1  15   1  15 file=uVeltave.0000000070
(PID.TID 0000.0001)  MDS_WRITE_FIELD: it,rec,kS,kL,kH=      70     1  15   1  15 file=vVeltave.0000000070
(PID.TID 0000.0001)  MDS_WRITE_FIELD: it,rec,kS,kL,kH=      70     1  15   1  15 file=wVeltave.0000000070
(PID.TID 0000.0001)  MDS_WRITE_FIELD: it,rec,kS,kL,kH=      70     1   1   1   1 file=Eta2tave.0000000070
(PID.TID 0000.0001)  MDS_WRITE_FIELD: it,rec,kS,kL,kH=      70     1  15   1  15 file=UTtave.0000000070
(PID.TID 0000.0001)  MDS_WRITE_FIELD: it,rec,kS,kL,kH=      70     1  15   1  15 file=VTtave.0000000070
(PID.TID 0000.0001)  MDS_WRITE_FIELD: it,rec,kS,kL,kH=      70     1  15   1  15 file=WTtave.0000000070
(PID.TID 0000.0001)  MDS_WRITE_FIELD: it,rec,kS,kL,kH=      70     1  15   1  15 file=UStave.0000000070
(PID.TID 0000.0001)  MDS_WRITE_FIELD: it,rec,kS,kL,kH=      70     1  15   1  15 file=VStave.0000000070
(PID.TID 0000.0001)  MDS_WRITE_FIELD: it,rec,kS,kL,kH=      70     1  15   1  15 file=WStave.0000000070
(PID.TID 0000.0001)  MDS_WRITE_FIELD: it,rec,kS,kL,kH=      70     1  15   1  15 file=TTtave.0000000070
(PID.TID 0000.0001)  MDS_WRITE_FIELD: it,rec,kS,kL,kH=      70     1  15   1  15 file=UUtave.0000000070
(PID.TID 0000.0001)  MDS_WRITE_FIELD: it,rec,kS,kL,kH=      70     1  15   1  15 file=VVtave.0000000070
(PID.TID 0000.0001)  MDS_WRITE_FIELD: it,rec,kS,kL,kH=      70     1  15   1  15 file=UVtave.0000000070
(PID.TID 0000.0001)  MDS_WRITE_FIELD: it,rec,kS,kL,kH=      70     1  15   1  15 file=Tdiftave.0000000070
(PID.TID 0000.0001)  MDS_WRITE_FIELD: it,rec,kS,kL,kH=      70     1  15   1  15 file=PhHytave.0000000070
(PID.TID 0000.0001)  MDS_WRITE_FIELD: it,rec,kS,kL,kH=      70     1   1   1   1 file=PHLtave.0000000070
(PID.TID 0000.0001)  MDS_WRITE_FIELD: it,rec,kS,kL,kH=      70     1   1   1   1 file=uFluxtave.0000000070
(PID.TID 0000.0001)  MDS_WRITE_FIELD: it,rec,kS,kL,kH=      70     1   1   1   1 file=vFluxtave.0000000070
(PID.TID 0000.0001)  MDS_WRITE_FIELD: it,rec,kS,kL,kH=      70     1   1   1   1 file=tFluxtave.0000000070
(PID.TID 0000.0001)  MDS_WRITE_FIELD: it,rec,kS,kL,kH=      70     1   1   1   1 file=sFluxtave.0000000070
(PID.TID 0000.0001)  MDS_WRITE_FIELD: it,rec,kS,kL,kH=      70     1   1   1   1 file=PHL2tave.0000000070
(PID.TID 0000.0001)  MDS_WRITE_FIELD: it,rec,kS,kL,kH=      70     1  15   1  15 file=Convtave.0000000070
(PID.TID 0000.0001) // Time-average data written, t-step        70
(PID.TID 0000.0001) 
(PID.TID 0000.0001)  MDS_WRITE_FIELD: it,rec,kS,kL,kH=      70     1  15   1  15 file=GM_Kwx-T.0000000070
(PID.TID 0000.0001)  MDS_WRITE_FIELD: it,rec,kS,kL,kH=      70     1  15   1  15 file=GM_Kwy-T.0000000070
(PID.TID 0000.0001)  MDS_WRITE_FIELD: it,rec,kS,kL,kH=      70     1  15   1  15 file=GM_Kwz-T.0000000070
(PID.TID 0000.0001)  MDS_WRITE_FIELD: it,rec,kS,kL,kH=      70     1  15   1  15 file=pickup_cd.0000000070
(PID.TID 0000.0001)  MDS_WRITE_FIELD: it,rec,kS,kL,kH=      70     2  15   1  15 file=pickup_cd.0000000070
(PID.TID 0000.0001)  MDS_WRITE_FIELD: it,rec,kS,kL,kH=      70     3  15   1  15 file=pickup_cd.0000000070
(PID.TID 0000.0001)  MDS_WRITE_FIELD: it,rec,kS,kL,kH=      70     4  15   1  15 file=pickup_cd.0000000070
(PID.TID 0000.0001)  MDS_WRITE_FIELD: it,rec,kS,kL,kH=      70    61   1   1   1 file=pickup_cd.0000000070
(PID.TID 0000.0001)  MDS_WRITE_FIELD: it,rec,kS,kL,kH=      70    -1  15   1  15 file=pickup.0000000070
(PID.TID 0000.0001)  MDS_WRITE_FIELD: it,rec,kS,kL,kH=      70    -2  15   1  15 file=pickup.0000000070
(PID.TID 0000.0001)  MDS_WRITE_FIELD: it,rec,kS,kL,kH=      70    -3  15   1  15 file=pickup.0000000070
(PID.TID 0000.0001)  MDS_WRITE_FIELD: it,rec,kS,kL,kH=      70    -4  15   1  15 file=pickup.0000000070
(PID.TID 0000.0001)  MDS_WRITE_FIELD: it,rec,kS,kL,kH=      70    -5  15   1  15 file=pickup.0000000070
(PID.TID 0000.0001)  MDS_WRITE_FIELD: it,rec,kS,kL,kH=      70    -6  15   1  15 file=pickup.0000000070
(PID.TID 0000.0001)  MDS_WRITE_FIELD: it,rec,kS,kL,kH=      70    -7  15   1  15 file=pickup.0000000070
(PID.TID 0000.0001)  MDS_WRITE_FIELD: it,rec,kS,kL,kH=      70    -8  15   1  15 file=pickup.0000000070
(PID.TID 0000.0001)  MDS_WRITE_FIELD: it,rec,kS,kL,kH=      70  -121   1   1   1 file=pickup.0000000070
(PID.TID 0000.0001)  MDS_WRITE_FIELD: it,rec,kS,kL,kH=      70  -122   1   1   1 file=pickup.0000000070
(PID.TID 0000.0001)  MDS_WRITE_FIELD: it,rec,kS,kL,kH=      70  -123   1   1   1 file=pickup.0000000070
(PID.TID 0000.0001) %CHECKPOINT        70 0000000070
(PID.TID 0000.0001)  MDS_WRITE_FIELD: it,rec,kS,kL,kH=      70     1   1   1   1 file=ETAN_forecast.0000000070
(PID.TID 0000.0001)  MDS_WRITE_FIELD: it,rec,kS,kL,kH=      70     1  15   1  15 file=THETA_forecast.0000000070
(PID.TID 0000.0001)  MDS_WRITE_FIELD: it,rec,kS,kL,kH=      70     1  15   1  15 file=SALT_forecast.0000000070
(PID.TID 0000.0001)  MDS_WRITE_FIELD: it,rec,kS,kL,kH=      70     1  15   1  15 file=UVEL_forecast.0000000070
(PID.TID 0000.0001)  MDS_WRITE_FIELD: it,rec,kS,kL,kH=      70     1  15   1  15 file=VVEL_forecast.0000000070
(PID.TID 0000.0001)  MDS_WRITE_FIELD: it,rec,kS,kL,kH=      70     1   1   1   1 file=ETAN_analysis.0000000070
(PID.TID 0000.0001)  MDS_WRITE_FIELD: it,rec,kS,kL,kH=      70     1  15   1  15 file=THETA_analysis.0000000070
(PID.TID 0000.0001)  MDS_WRITE_FIELD: it,rec,kS,kL,kH=      70     1  15   1  15 file=SALT_analysis.0000000070
(PID.TID 0000.0001)  MDS_WRITE_FIELD: it,rec,kS,kL,kH=      70     1  15   1  15 file=UVEL_analysis.0000000070
(PID.TID 0000.0001)  MDS_WRITE_FIELD: it,rec,kS,kL,kH=      70     1  15   1  15 file=VVEL_analysis.0000000070
 EXTERNAL_FIELDS_LOAD,        70 : iP,iLd,i0,i1=    2    3    2    3 ; Wght=  0.1666666667  0.8333333333
 EXTERNAL_FIELDS_LOAD: (fu0,1),fu,fv= -1.4435E-02 -2.7199E-02 -2.5072E-02 -3.4210E-03
 EXTERNAL_FIELDS_LOAD: SST,SSS,Q,E-P= -2.4190E-01  3.4553E+01  2.1958E+02  8.9635E-06
DEBUG_STATS_RL:          Uvel (THERMODYNAMICS)  min= -1.22353937267958E-01
DEBUG_STATS_RL:          Uvel (THERMODYNAMICS)  max=  1.46156238162552E-01
DEBUG_STATS_RL:          Uvel (THERMODYNAMICS) mean=  5.87413020073835E-03
DEBUG_STATS_RL:          Uvel (THERMODYNAMICS) S.D.=  2.13370155671866E-02
DEBUG_STATS_RL:          Vvel (THERMODYNAMICS)  min= -8.63551339417230E-02
DEBUG_STATS_RL:          Vvel (THERMODYNAMICS)  max=  1.44071167534472E-01
DEBUG_STATS_RL:          Vvel (THERMODYNAMICS) mean=  6.02383773318387E-04
DEBUG_STATS_RL:          Vvel (THERMODYNAMICS) S.D.=  1.32961917565486E-02
DEBUG_STATS_RL:          Wvel (THERMODYNAMICS)  min= -7.44205004438813E-05
DEBUG_STATS_RL:          Wvel (THERMODYNAMICS)  max=  1.48019042753382E-04
DEBUG_STATS_RL:          Wvel (THERMODYNAMICS) mean= -9.34144197339199E-08
DEBUG_STATS_RL:          Wvel (THERMODYNAMICS) S.D.=  9.01426695218740E-06
DEBUG_STATS_RL:         Theta (THERMODYNAMICS)  min= -1.95217125505429E+00
DEBUG_STATS_RL:         Theta (THERMODYNAMICS)  max=  3.07969497306097E+01
DEBUG_STATS_RL:         Theta (THERMODYNAMICS) mean=  3.22088522966181E+00
DEBUG_STATS_RL:         Theta (THERMODYNAMICS) S.D.=  5.88235467025454E+00
DEBUG_STATS_RL:          Salt (THERMODYNAMICS)  min= -2.77555756156289E-17
DEBUG_STATS_RL:          Salt (THERMODYNAMICS)  max=  3.74659424707435E+01
DEBUG_STATS_RL:          Salt (THERMODYNAMICS) mean=  1.88447210953303E+01
DEBUG_STATS_RL:          Salt (THERMODYNAMICS) S.D.=  1.73002667994501E+01
DEBUG_STATS_RL:         GtNm1 (THERMODYNAMICS)  min= -4.88661721029726E-06
DEBUG_STATS_RL:         GtNm1 (THERMODYNAMICS)  max=  2.55091653558866E-06
DEBUG_STATS_RL:         GtNm1 (THERMODYNAMICS) mean=  3.46219884186639E-09
DEBUG_STATS_RL:         GtNm1 (THERMODYNAMICS) S.D.=  1.53990449919316E-07
DEBUG_STATS_RL:         GsNm1 (THERMODYNAMICS)  min= -5.01263444301452E-07
DEBUG_STATS_RL:         GsNm1 (THERMODYNAMICS)  max=  3.37809381930276E-07
DEBUG_STATS_RL:         GsNm1 (THERMODYNAMICS) mean= -1.76683175936819E-10
DEBUG_STATS_RL:         GsNm1 (THERMODYNAMICS) S.D.=  1.45567862992296E-08
DEBUG_STATS_RL:                EtaN (DYNAMICS)  min= -1.89308369746506E+00
DEBUG_STATS_RL:                EtaN (DYNAMICS)  max=  9.65335456380529E-01
DEBUG_STATS_RL:                EtaN (DYNAMICS) mean= -1.89543176400885E-01
DEBUG_STATS_RL:                EtaN (DYNAMICS) S.D.=  7.38138816737929E-01
DEBUG_STATS_RL:                Uvel (DYNAMICS)  min= -1.22353937267958E-01
DEBUG_STATS_RL:                Uvel (DYNAMICS)  max=  1.46156238162552E-01
DEBUG_STATS_RL:                Uvel (DYNAMICS) mean=  5.87413020073835E-03
DEBUG_STATS_RL:                Uvel (DYNAMICS) S.D.=  2.13370155671866E-02
DEBUG_STATS_RL:                Vvel (DYNAMICS)  min= -8.63551339417230E-02
DEBUG_STATS_RL:                Vvel (DYNAMICS)  max=  1.44071167534472E-01
DEBUG_STATS_RL:                Vvel (DYNAMICS) mean=  6.02383773318387E-04
DEBUG_STATS_RL:                Vvel (DYNAMICS) S.D.=  1.32961917565486E-02
DEBUG_STATS_RL:                Wvel (DYNAMICS)  min= -7.44205004438813E-05
DEBUG_STATS_RL:                Wvel (DYNAMICS)  max=  1.48019042753382E-04
DEBUG_STATS_RL:                Wvel (DYNAMICS) mean= -9.34144197339199E-08
DEBUG_STATS_RL:                Wvel (DYNAMICS) S.D.=  9.01426695218740E-06
DEBUG_STATS_RL:               Theta (DYNAMICS)  min= -1.95217125505429E+00
DEBUG_STATS_RL:               Theta (DYNAMICS)  max=  3.07969497306097E+01
DEBUG_STATS_RL:               Theta (DYNAMICS) mean=  3.22088522966181E+00
DEBUG_STATS_RL:               Theta (DYNAMICS) S.D.=  5.88235467025454E+00
DEBUG_STATS_RL:                Salt (DYNAMICS)  min= -2.77555756156289E-17
DEBUG_STATS_RL:                Salt (DYNAMICS)  max=  3.74659424707435E+01
DEBUG_STATS_RL:                Salt (DYNAMICS) mean=  1.88447210953303E+01
DEBUG_STATS_RL:                Salt (DYNAMICS) S.D.=  1.73002667994501E+01
DEBUG_STATS_RL:                  Gu (DYNAMICS)  min= -1.22017627327944E-01
DEBUG_STATS_RL:                  Gu (DYNAMICS)  max=  1.45579815806517E-01
DEBUG_STATS_RL:                  Gu (DYNAMICS) mean=  5.87884514431389E-03
DEBUG_STATS_RL:                  Gu (DYNAMICS) S.D.=  2.19280896385633E-02
DEBUG_STATS_RL:                  Gv (DYNAMICS)  min= -9.30703059170201E-02
DEBUG_STATS_RL:                  Gv (DYNAMICS)  max=  1.44326157342861E-01
DEBUG_STATS_RL:                  Gv (DYNAMICS) mean=  3.20279744543222E-03
DEBUG_STATS_RL:                  Gv (DYNAMICS) S.D.=  1.45017136238807E-02
DEBUG_STATS_RL:               GuNm1 (DYNAMICS)  min= -9.98946290503034E-06
DEBUG_STATS_RL:               GuNm1 (DYNAMICS)  max=  9.21747143556921E-06
DEBUG_STATS_RL:               GuNm1 (DYNAMICS) mean=  5.51028483872808E-09
DEBUG_STATS_RL:               GuNm1 (DYNAMICS) S.D.=  1.20714530871907E-06
DEBUG_STATS_RL:               GvNm1 (DYNAMICS)  min= -1.00022225318832E-05
DEBUG_STATS_RL:               GvNm1 (DYNAMICS)  max=  1.56613147714844E-05
DEBUG_STATS_RL:               GvNm1 (DYNAMICS) mean=  7.35080173879185E-07
DEBUG_STATS_RL:               GvNm1 (DYNAMICS) S.D.=  2.62749420169983E-06
DEBUG_STATS_RL:               GtNm1 (DYNAMICS)  min= -4.88661721029726E-06
DEBUG_STATS_RL:               GtNm1 (DYNAMICS)  max=  2.55091653558866E-06
DEBUG_STATS_RL:               GtNm1 (DYNAMICS) mean=  3.46219884186639E-09
DEBUG_STATS_RL:               GtNm1 (DYNAMICS) S.D.=  1.53990449919316E-07
DEBUG_STATS_RL:               GsNm1 (DYNAMICS)  min= -5.01263444301452E-07
DEBUG_STATS_RL:               GsNm1 (DYNAMICS)  max=  3.37809381930276E-07
DEBUG_STATS_RL:               GsNm1 (DYNAMICS) mean= -1.76683175936819E-10
DEBUG_STATS_RL:               GsNm1 (DYNAMICS) S.D.=  1.45567862992296E-08
DEBUG_STATS_RL:    cg2d_b (SOLVE_FOR_PRESSURE)  min= -2.32846701519302E+04
DEBUG_STATS_RL:    cg2d_b (SOLVE_FOR_PRESSURE)  max=  2.36688180569831E+04
DEBUG_STATS_RL:    cg2d_b (SOLVE_FOR_PRESSURE) mean=  4.87496137645652E+00
DEBUG_STATS_RL:    cg2d_b (SOLVE_FOR_PRESSURE) S.D.=  3.91635969469085E+03
 cg2d: Sum(rhs),rhsMax =   4.76810272457420E-01  1.55463134148468E+00
(PID.TID 0000.0001)  cg2d: iter=     1 ; resid.=  7.29416550765052E-02
(PID.TID 0000.0001)  cg2d: iter=     2 ; resid.=  4.54641683850665E-02
(PID.TID 0000.0001)  cg2d: iter=     3 ; resid.=  4.76792417430365E-02
(PID.TID 0000.0001)  cg2d: iter=     4 ; resid.=  5.21252082871567E-02
(PID.TID 0000.0001)  cg2d: iter=     5 ; resid.=  5.20089220360324E-02
(PID.TID 0000.0001)  cg2d: iter=     6 ; resid.=  4.13124035383061E-02
(PID.TID 0000.0001)  cg2d: iter=     7 ; resid.=  3.08024326338664E-02
(PID.TID 0000.0001)  cg2d: iter=     8 ; resid.=  2.23754971218631E-02
(PID.TID 0000.0001)  cg2d: iter=     9 ; resid.=  1.73547126839466E-02
(PID.TID 0000.0001)  cg2d: iter=    10 ; resid.=  1.34010230212146E-02
(PID.TID 0000.0001)  cg2d: iter=    11 ; resid.=  1.04906982255414E-02
(PID.TID 0000.0001)  cg2d: iter=    12 ; resid.=  8.84008110815598E-03
(PID.TID 0000.0001)  cg2d: iter=    13 ; resid.=  7.50907877637945E-03
(PID.TID 0000.0001)  cg2d: iter=    14 ; resid.=  6.20011033077140E-03
(PID.TID 0000.0001)  cg2d: iter=    15 ; resid.=  5.39268553825194E-03
(PID.TID 0000.0001)  cg2d: iter=    16 ; resid.=  4.90031043480770E-03
(PID.TID 0000.0001)  cg2d: iter=    17 ; resid.=  4.41924871336765E-03
(PID.TID 0000.0001)  cg2d: iter=    18 ; resid.=  3.99038987335381E-03
(PID.TID 0000.0001)  cg2d: iter=    19 ; resid.=  3.20961415283055E-03
(PID.TID 0000.0001)  cg2d: iter=    20 ; resid.=  2.55035302968481E-03
(PID.TID 0000.0001)  cg2d: iter=    21 ; resid.=  2.08729894671124E-03
(PID.TID 0000.0001)  cg2d: iter=    22 ; resid.=  1.73149153582692E-03
(PID.TID 0000.0001)  cg2d: iter=    23 ; resid.=  1.47028851342692E-03
(PID.TID 0000.0001)  cg2d: iter=    24 ; resid.=  1.18926624500895E-03
(PID.TID 0000.0001)  cg2d: iter=    25 ; resid.=  9.76230475235723E-04
(PID.TID 0000.0001)  cg2d: iter=    26 ; resid.=  7.67824347993233E-04
(PID.TID 0000.0001)  cg2d: iter=    27 ; resid.=  6.24094972640113E-04
(PID.TID 0000.0001)  cg2d: iter=    28 ; resid.=  5.08866543751356E-04
(PID.TID 0000.0001)  cg2d: iter=    29 ; resid.=  4.11760081102332E-04
(PID.TID 0000.0001)  cg2d: iter=    30 ; resid.=  3.37299116982237E-04
(PID.TID 0000.0001)  cg2d: iter=    31 ; resid.=  3.00376120834691E-04
(PID.TID 0000.0001)  cg2d: iter=    32 ; resid.=  2.48871153382623E-04
(PID.TID 0000.0001)  cg2d: iter=    33 ; resid.=  2.05213376860071E-04
(PID.TID 0000.0001)  cg2d: iter=    34 ; resid.=  1.70493648092820E-04
(PID.TID 0000.0001)  cg2d: iter=    35 ; resid.=  1.34215796118965E-04
(PID.TID 0000.0001)  cg2d: iter=    36 ; resid.=  1.18506488408031E-04
(PID.TID 0000.0001)  cg2d: iter=    37 ; resid.=  1.05506496458599E-04
(PID.TID 0000.0001)  cg2d: iter=    38 ; resid.=  9.75842426794881E-05
(PID.TID 0000.0001)  cg2d: iter=    39 ; resid.=  8.65211270197380E-05
(PID.TID 0000.0001)  cg2d: iter=    40 ; resid.=  7.10920786383470E-05
(PID.TID 0000.0001)  cg2d: iter=    41 ; resid.=  5.11195407642942E-05
(PID.TID 0000.0001)  cg2d: iter=    42 ; resid.=  4.28489784920557E-05
(PID.TID 0000.0001)  cg2d: iter=    43 ; resid.=  4.16994064350897E-05
(PID.TID 0000.0001)  cg2d: iter=    44 ; resid.=  3.53716365058895E-05
(PID.TID 0000.0001)  cg2d: iter=    45 ; resid.=  2.67846417720897E-05
(PID.TID 0000.0001)  cg2d: iter=    46 ; resid.=  2.12376153164236E-05
(PID.TID 0000.0001)  cg2d: iter=    47 ; resid.=  1.72875428724259E-05
(PID.TID 0000.0001)  cg2d: iter=    48 ; resid.=  1.45947960920122E-05
(PID.TID 0000.0001)  cg2d: iter=    49 ; resid.=  1.32901408329392E-05
(PID.TID 0000.0001)  cg2d: iter=    50 ; resid.=  1.14650006292260E-05
(PID.TID 0000.0001)  cg2d: iter=    51 ; resid.=  1.01340194875651E-05
(PID.TID 0000.0001)  cg2d: iter=    52 ; resid.=  8.08818579406783E-06
(PID.TID 0000.0001)  cg2d: iter=    53 ; resid.=  6.91333850311538E-06
(PID.TID 0000.0001)  cg2d: iter=    54 ; resid.=  5.80410325452310E-06
(PID.TID 0000.0001)  cg2d: iter=    55 ; resid.=  4.81341390258576E-06
(PID.TID 0000.0001)  cg2d: iter=    56 ; resid.=  3.93327293891429E-06
(PID.TID 0000.0001)  cg2d: iter=    57 ; resid.=  3.19430456699722E-06
(PID.TID 0000.0001)  cg2d: iter=    58 ; resid.=  2.63436543354209E-06
(PID.TID 0000.0001)  cg2d: iter=    59 ; resid.=  1.92672187612507E-06
(PID.TID 0000.0001)  cg2d: iter=    60 ; resid.=  1.34207966524738E-06
(PID.TID 0000.0001)  cg2d: iter=    61 ; resid.=  1.04083417437284E-06
(PID.TID 0000.0001)  cg2d: iter=    62 ; resid.=  9.05768242534975E-07
(PID.TID 0000.0001)  cg2d: iter=    63 ; resid.=  7.67907206233514E-07
(PID.TID 0000.0001)  cg2d: iter=    64 ; resid.=  6.25995074260503E-07
(PID.TID 0000.0001)  cg2d: iter=    65 ; resid.=  5.16463824715253E-07
(PID.TID 0000.0001)  cg2d: iter=    66 ; resid.=  4.63125459389309E-07
(PID.TID 0000.0001)  cg2d: iter=    67 ; resid.=  3.89167199999571E-07
(PID.TID 0000.0001)  cg2d: iter=    68 ; resid.=  3.38975846131212E-07
(PID.TID 0000.0001)  cg2d: iter=    69 ; resid.=  2.93702809384495E-07
(PID.TID 0000.0001)  cg2d: iter=    70 ; resid.=  2.58305184818736E-07
(PID.TID 0000.0001)  cg2d: iter=    71 ; resid.=  2.08480407958773E-07
(PID.TID 0000.0001)  cg2d: iter=    72 ; resid.=  1.60905744965304E-07
(PID.TID 0000.0001)  cg2d: iter=    73 ; resid.=  1.35448851515450E-07
(PID.TID 0000.0001)  cg2d: iter=    74 ; resid.=  1.18074015236929E-07
(PID.TID 0000.0001)  cg2d: iter=    75 ; resid.=  9.70962745453238E-08
(PID.TID 0000.0001)  cg2d: iter=    76 ; resid.=  7.60904433323183E-08
(PID.TID 0000.0001)  cg2d: iter=    77 ; resid.=  5.83813266568443E-08
(PID.TID 0000.0001)  cg2d: iter=    78 ; resid.=  4.41567462186694E-08
(PID.TID 0000.0001)  cg2d: iter=    79 ; resid.=  3.61357205200779E-08
(PID.TID 0000.0001)  cg2d: iter=    80 ; resid.=  2.94663636840353E-08
(PID.TID 0000.0001)  cg2d: iter=    81 ; resid.=  2.34153839190968E-08
(PID.TID 0000.0001)  cg2d: iter=    82 ; resid.=  1.81955326193296E-08
(PID.TID 0000.0001)  cg2d: iter=    83 ; resid.=  1.33024858758272E-08
(PID.TID 0000.0001)  cg2d: iter=    84 ; resid.=  1.02000743749545E-08
(PID.TID 0000.0001)  cg2d: iter=    85 ; resid.=  6.82970565709160E-09
(PID.TID 0000.0001)  cg2d: iter=    86 ; resid.=  4.77979184230291E-09
(PID.TID 0000.0001)  cg2d: iter=    87 ; resid.=  3.80700053581719E-09
(PID.TID 0000.0001)  cg2d: iter=    88 ; resid.=  3.10246578864202E-09
(PID.TID 0000.0001)  cg2d: iter=    89 ; resid.=  2.52900608278851E-09
(PID.TID 0000.0001)  cg2d: iter=    90 ; resid.=  2.06778298042355E-09
(PID.TID 0000.0001)  cg2d: iter=    91 ; resid.=  1.70077975894161E-09
(PID.TID 0000.0001)  cg2d: iter=    92 ; resid.=  1.32759339416980E-09
(PID.TID 0000.0001)  cg2d: iter=    93 ; resid.=  1.04713388542673E-09
(PID.TID 0000.0001)  cg2d: iter=    94 ; resid.=  8.21893182675009E-10
(PID.TID 0000.0001)  cg2d: iter=    95 ; resid.=  5.81898492222508E-10
(PID.TID 0000.0001)  cg2d: iter=    96 ; resid.=  4.40619679219668E-10
(PID.TID 0000.0001)  cg2d: iter=    97 ; resid.=  3.48232659876524E-10
(PID.TID 0000.0001)  cg2d: iter=    98 ; resid.=  2.82389724149929E-10
(PID.TID 0000.0001)  cg2d: iter=    99 ; resid.=  2.34353995680266E-10
(PID.TID 0000.0001)  cg2d: iter=   100 ; resid.=  1.99459920238466E-10
(PID.TID 0000.0001)  cg2d: iter=   101 ; resid.=  1.78698228657539E-10
(PID.TID 0000.0001)  cg2d: iter=   102 ; resid.=  1.54930071722142E-10
(PID.TID 0000.0001)  cg2d: iter=   103 ; resid.=  1.25920564276730E-10
(PID.TID 0000.0001)  cg2d: iter=   104 ; resid.=  9.34137291145238E-11
(PID.TID 0000.0001)  cg2d: iter=   105 ; resid.=  7.43872697407385E-11
(PID.TID 0000.0001)  cg2d: iter=   106 ; resid.=  7.13010045918917E-11
(PID.TID 0000.0001)  cg2d: iter=   107 ; resid.=  5.60223732074598E-11
(PID.TID 0000.0001)  cg2d: iter=   108 ; resid.=  4.13098974346642E-11
(PID.TID 0000.0001)  cg2d: iter=   109 ; resid.=  3.09966348997087E-11
(PID.TID 0000.0001)  cg2d: iter=   110 ; resid.=  2.18866761614658E-11
(PID.TID 0000.0001)  cg2d: iter=   111 ; resid.=  1.73795519978065E-11
(PID.TID 0000.0001)  cg2d: iter=   112 ; resid.=  1.40085785618681E-11
(PID.TID 0000.0001)  cg2d: iter=   113 ; resid.=  1.08035784123152E-11
(PID.TID 0000.0001)  cg2d: iter=   114 ; resid.=  8.59050109482590E-12
(PID.TID 0000.0001)  cg2d: iter=   115 ; resid.=  6.33481615854912E-12
(PID.TID 0000.0001)  cg2d: iter=   116 ; resid.=  4.55430732134249E-12
(PID.TID 0000.0001)  cg2d: iter=   117 ; resid.=  3.82153551185348E-12
(PID.TID 0000.0001)  cg2d: iter=   118 ; resid.=  2.96019090800249E-12
(PID.TID 0000.0001)  cg2d: iter=   119 ; resid.=  2.31936906899714E-12
(PID.TID 0000.0001)  cg2d: iter=   120 ; resid.=  1.87216321829017E-12
(PID.TID 0000.0001)  cg2d: iter=   121 ; resid.=  1.48176177286450E-12
(PID.TID 0000.0001)  cg2d: iter=   122 ; resid.=  1.16612731737271E-12
(PID.TID 0000.0001)  cg2d: iter=   123 ; resid.=  7.99044026642491E-13
(PID.TID 0000.0001)  cg2d: iter=   124 ; resid.=  5.88421200064263E-13
(PID.TID 0000.0001)  cg2d: iter=   125 ; resid.=  4.29417182456890E-13
(PID.TID 0000.0001)  cg2d: iter=   126 ; resid.=  3.02341705138238E-13
(PID.TID 0000.0001)  cg2d: iter=   127 ; resid.=  2.11897209452515E-13
(PID.TID 0000.0001)  cg2d: iter=   128 ; resid.=  1.50567427966130E-13
(PID.TID 0000.0001)  cg2d: iter=   129 ; resid.=  1.05765277914576E-13
(PID.TID 0000.0001)  cg2d: iter=   130 ; resid.=  6.93719289382127E-14
DEBUG_STATS_RL:    cg2d_x (SOLVE_FOR_PRESSURE)  min= -1.85625711163166E+01
DEBUG_STATS_RL:    cg2d_x (SOLVE_FOR_PRESSURE)  max=  9.40628778995400E+00
DEBUG_STATS_RL:    cg2d_x (SOLVE_FOR_PRESSURE) mean= -1.85526900400619E+00
DEBUG_STATS_RL:    cg2d_x (SOLVE_FOR_PRESSURE) S.D.=  7.20846445364588E+00
(PID.TID 0000.0001)      cg2d_init_res =   2.59166329780897E-01
(PID.TID 0000.0001)      cg2d_iters(min,last) =      -1     130
(PID.TID 0000.0001)      cg2d_last_res =   6.93719289382127E-14
(PID.TID 0000.0001) // =======================================================
(PID.TID 0000.0001) // Begin MONITOR dynamic field statistics
(PID.TID 0000.0001) // =======================================================
(PID.TID 0000.0001) %MON time_tsnumber                =                    71
(PID.TID 0000.0001) %MON time_secondsf                =   6.1344000000000E+06
(PID.TID 0000.0001) %MON dynstat_eta_max              =   9.5884686951614E-01
(PID.TID 0000.0001) %MON dynstat_eta_min              =  -1.8922090842320E+00
(PID.TID 0000.0001) %MON dynstat_eta_mean             =  -5.0864177210782E-03
(PID.TID 0000.0001) %MON dynstat_eta_sd               =   6.3842565145063E-01
(PID.TID 0000.0001) %MON dynstat_eta_del2             =   2.4295726413446E-03
(PID.TID 0000.0001) %MON dynstat_uvel_max             =   1.4743610258048E-01
(PID.TID 0000.0001) %MON dynstat_uvel_min             =  -1.2172006626088E-01
(PID.TID 0000.0001) %MON dynstat_uvel_mean            =   2.2781213344816E-03
(PID.TID 0000.0001) %MON dynstat_uvel_sd              =   1.3139630923550E-02
(PID.TID 0000.0001) %MON dynstat_uvel_del2            =   8.0787046369127E-05
(PID.TID 0000.0001) %MON dynstat_vvel_max             =   1.4368977602898E-01
(PID.TID 0000.0001) %MON dynstat_vvel_min             =  -8.5562978065713E-02
(PID.TID 0000.0001) %MON dynstat_vvel_mean            =   3.0534924208801E-05
(PID.TID 0000.0001) %MON dynstat_vvel_sd              =   8.1274957160120E-03
(PID.TID 0000.0001) %MON dynstat_vvel_del2            =   7.1899974716254E-05
(PID.TID 0000.0001) %MON dynstat_wvel_max             =   1.5440165405015E-04
(PID.TID 0000.0001) %MON dynstat_wvel_min             =  -7.5357074740531E-05
(PID.TID 0000.0001) %MON dynstat_wvel_mean            =   1.7492270813857E-22
(PID.TID 0000.0001) %MON dynstat_wvel_sd              =   1.0171372229949E-05
(PID.TID 0000.0001) %MON dynstat_wvel_del2            =   1.0232381167466E-07
(PID.TID 0000.0001) %MON dynstat_theta_max            =   3.0796949730610E+01
(PID.TID 0000.0001) %MON dynstat_theta_min            =  -1.9521712550543E+00
(PID.TID 0000.0001) %MON dynstat_theta_mean           =   3.6238712056085E+00
(PID.TID 0000.0001) %MON dynstat_theta_sd             =   4.4259634513595E+00
(PID.TID 0000.0001) %MON dynstat_theta_del2           =   4.8672707110025E-03
(PID.TID 0000.0001) %MON dynstat_salt_max             =   3.7465942470744E+01
(PID.TID 0000.0001) %MON dynstat_salt_min             =   2.9891563324084E+01
(PID.TID 0000.0001) %MON dynstat_salt_mean            =   3.4718003349400E+01
(PID.TID 0000.0001) %MON dynstat_salt_sd              =   2.9652614219908E-01
(PID.TID 0000.0001) %MON dynstat_salt_del2            =   9.8771713060741E-04
(PID.TID 0000.0001) %MON dynstat_sst_max              =   3.0796949730610E+01
(PID.TID 0000.0001) %MON dynstat_sst_min              =  -1.9521712550543E+00
(PID.TID 0000.0001) %MON dynstat_sst_mean             =   1.9036725958641E+01
(PID.TID 0000.0001) %MON dynstat_sst_sd               =   9.1162354593672E+00
(PID.TID 0000.0001) %MON dynstat_sst_del2             =   2.8390638471782E-02
(PID.TID 0000.0001) %MON dynstat_sss_max              =   3.7454827174301E+01
(PID.TID 0000.0001) %MON dynstat_sss_min              =   2.9891563324084E+01
(PID.TID 0000.0001) %MON dynstat_sss_mean             =   3.4837589173849E+01
(PID.TID 0000.0001) %MON dynstat_sss_sd               =   9.8387490958555E-01
(PID.TID 0000.0001) %MON dynstat_sss_del2             =   8.0725730447840E-03
(PID.TID 0000.0001) %MON forcing_qnet_max             =   2.8849844868978E+02
(PID.TID 0000.0001) %MON forcing_qnet_min             =  -1.6535198720296E+02
(PID.TID 0000.0001) %MON forcing_qnet_mean            =  -8.3817634882777E+00
(PID.TID 0000.0001) %MON forcing_qnet_sd              =   4.9864795267644E+01
(PID.TID 0000.0001) %MON forcing_qnet_del2            =   8.5719679671987E-01
(PID.TID 0000.0001) %MON forcing_qsw_max              =   0.0000000000000E+00
(PID.TID 0000.0001) %MON forcing_qsw_min              =   0.0000000000000E+00
(PID.TID 0000.0001) %MON forcing_qsw_mean             =   0.0000000000000E+00
(PID.TID 0000.0001) %MON forcing_qsw_sd               =   0.0000000000000E+00
(PID.TID 0000.0001) %MON forcing_qsw_del2             =   0.0000000000000E+00
(PID.TID 0000.0001) %MON forcing_empmr_max            =   6.9137603494103E-05
(PID.TID 0000.0001) %MON forcing_empmr_min            =  -8.1268519617576E-05
(PID.TID 0000.0001) %MON forcing_empmr_mean           =   6.1616070805047E-07
(PID.TID 0000.0001) %MON forcing_empmr_sd             =   2.6421504912725E-05
(PID.TID 0000.0001) %MON forcing_empmr_del2           =   3.6086334081367E-07
(PID.TID 0000.0001) %MON forcing_fu_max               =   3.4784431755543E-01
(PID.TID 0000.0001) %MON forcing_fu_min               =  -3.5669582585494E-01
(PID.TID 0000.0001) %MON forcing_fu_mean              =   1.9985731353096E-02
(PID.TID 0000.0001) %MON forcing_fu_sd                =   9.9411775460539E-02
(PID.TID 0000.0001) %MON forcing_fu_del2              =   7.8843066227507E-04
(PID.TID 0000.0001) %MON forcing_fv_max               =   1.6417456045747E-01
(PID.TID 0000.0001) %MON forcing_fv_min               =  -1.8584267546733E-01
(PID.TID 0000.0001) %MON forcing_fv_mean              =  -7.4774336901972E-03
(PID.TID 0000.0001) %MON forcing_fv_sd                =   4.1978074219208E-02
(PID.TID 0000.0001) %MON forcing_fv_del2              =   4.8213719373275E-04
(PID.TID 0000.0001) %MON trAdv_CFL_u_max              =   4.8319654657347E-02
(PID.TID 0000.0001) %MON trAdv_CFL_v_max              =   2.7876654510183E-02
(PID.TID 0000.0001) %MON trAdv_CFL_w_max              =   3.2791911009980E-02
(PID.TID 0000.0001) %MON advcfl_uvel_max              =   4.8732883359814E-02
(PID.TID 0000.0001) %MON advcfl_vvel_max              =   2.7916618975484E-02
(PID.TID 0000.0001) %MON advcfl_wvel_max              =   3.6548775095706E-02
(PID.TID 0000.0001) %MON advcfl_W_hf_max              =   3.9236185029213E-02
(PID.TID 0000.0001) %MON pe_b_mean                    =   5.2159019979541E-04
(PID.TID 0000.0001) %MON ke_max                       =   1.1537734312861E-02
(PID.TID 0000.0001) %MON ke_mean                      =   1.1045122053143E-04
(PID.TID 0000.0001) %MON ke_vol                       =   1.3226782436723E+18
(PID.TID 0000.0001) %MON vort_r_min                   =  -2.9579096330879E-07
(PID.TID 0000.0001) %MON vort_r_max                   =   4.0648427677562E-07
(PID.TID 0000.0001) %MON vort_a_mean                  =  -2.5274807046531E-05
(PID.TID 0000.0001) %MON vort_a_sd                    =   7.3604651051101E-05
(PID.TID 0000.0001) %MON vort_p_mean                  =  -3.1845655357322E-05
(PID.TID 0000.0001) %MON vort_p_sd                    =   1.3162500093063E-04
(PID.TID 0000.0001) %MON surfExpan_theta_mean         =  -6.4996463692153E-08
(PID.TID 0000.0001) %MON surfExpan_salt_mean          =   6.5728803736373E-08
(PID.TID 0000.0001) // =======================================================
(PID.TID 0000.0001) // End MONITOR dynamic field statistics
(PID.TID 0000.0001) // =======================================================
 EXTERNAL_FIELDS_LOAD,        71 : iP,iLd,i0,i1=    2    3    2    3 ; Wght=  0.1333333333  0.8666666667
 EXTERNAL_FIELDS_LOAD: (fu0,1),fu,fv= -1.4435E-02 -2.7199E-02 -2.5497E-02 -2.8524E-03
 EXTERNAL_FIELDS_LOAD: SST,SSS,Q,E-P= -2.3030E-01  3.4558E+01  2.1874E+02  8.9870E-06
DEBUG_STATS_RL:          Uvel (THERMODYNAMICS)  min= -1.21720066260881E-01
DEBUG_STATS_RL:          Uvel (THERMODYNAMICS)  max=  1.47436102580485E-01
DEBUG_STATS_RL:          Uvel (THERMODYNAMICS) mean=  5.95035384297527E-03
DEBUG_STATS_RL:          Uvel (THERMODYNAMICS) S.D.=  2.15473306978464E-02
DEBUG_STATS_RL:          Vvel (THERMODYNAMICS)  min= -8.55629780657129E-02
DEBUG_STATS_RL:          Vvel (THERMODYNAMICS)  max=  1.43689776028978E-01
DEBUG_STATS_RL:          Vvel (THERMODYNAMICS) mean=  6.49287124483135E-04
DEBUG_STATS_RL:          Vvel (THERMODYNAMICS) S.D.=  1.32832477351550E-02
DEBUG_STATS_RL:          Wvel (THERMODYNAMICS)  min= -7.53570747405306E-05
DEBUG_STATS_RL:          Wvel (THERMODYNAMICS)  max=  1.54401654050145E-04
DEBUG_STATS_RL:          Wvel (THERMODYNAMICS) mean= -7.93746742828444E-08
DEBUG_STATS_RL:          Wvel (THERMODYNAMICS) S.D.=  9.04052207921690E-06
DEBUG_STATS_RL:         Theta (THERMODYNAMICS)  min= -1.95129558912932E+00
DEBUG_STATS_RL:         Theta (THERMODYNAMICS)  max=  3.08243930776439E+01
DEBUG_STATS_RL:         Theta (THERMODYNAMICS) mean=  3.22100854721320E+00
DEBUG_STATS_RL:         Theta (THERMODYNAMICS) S.D.=  5.88287580082575E+00
DEBUG_STATS_RL:          Salt (THERMODYNAMICS)  min= -2.77555756156289E-17
DEBUG_STATS_RL:          Salt (THERMODYNAMICS)  max=  3.74654858601994E+01
DEBUG_STATS_RL:          Salt (THERMODYNAMICS) mean=  1.88447196256283E+01
DEBUG_STATS_RL:          Salt (THERMODYNAMICS) S.D.=  1.73002660224585E+01
DEBUG_STATS_RL:         GtNm1 (THERMODYNAMICS)  min= -4.67778875124207E-06
DEBUG_STATS_RL:         GtNm1 (THERMODYNAMICS)  max=  2.40693651911131E-06
DEBUG_STATS_RL:         GtNm1 (THERMODYNAMICS) mean=  3.29829067245776E-09
DEBUG_STATS_RL:         GtNm1 (THERMODYNAMICS) S.D.=  1.51847863283436E-07
DEBUG_STATS_RL:         GsNm1 (THERMODYNAMICS)  min= -4.69108662268060E-07
DEBUG_STATS_RL:         GsNm1 (THERMODYNAMICS)  max=  3.13220332936307E-07
DEBUG_STATS_RL:         GsNm1 (THERMODYNAMICS) mean= -1.30362706405067E-10
DEBUG_STATS_RL:         GsNm1 (THERMODYNAMICS) S.D.=  1.42747613287179E-08
DEBUG_STATS_RL:                EtaN (DYNAMICS)  min= -1.89220908423204E+00
DEBUG_STATS_RL:                EtaN (DYNAMICS)  max=  9.58846869516143E-01
DEBUG_STATS_RL:                EtaN (DYNAMICS) mean= -1.89120183894619E-01
DEBUG_STATS_RL:                EtaN (DYNAMICS) S.D.=  7.34807793439948E-01
DEBUG_STATS_RL:                Uvel (DYNAMICS)  min= -1.21720066260881E-01
DEBUG_STATS_RL:                Uvel (DYNAMICS)  max=  1.47436102580485E-01
DEBUG_STATS_RL:                Uvel (DYNAMICS) mean=  5.95035384297527E-03
DEBUG_STATS_RL:                Uvel (DYNAMICS) S.D.=  2.15473306978464E-02
DEBUG_STATS_RL:                Vvel (DYNAMICS)  min= -8.55629780657129E-02
DEBUG_STATS_RL:                Vvel (DYNAMICS)  max=  1.43689776028978E-01
DEBUG_STATS_RL:                Vvel (DYNAMICS) mean=  6.49287124483135E-04
DEBUG_STATS_RL:                Vvel (DYNAMICS) S.D.=  1.32832477351550E-02
DEBUG_STATS_RL:                Wvel (DYNAMICS)  min= -7.53570747405306E-05
DEBUG_STATS_RL:                Wvel (DYNAMICS)  max=  1.54401654050145E-04
DEBUG_STATS_RL:                Wvel (DYNAMICS) mean= -7.93746742828444E-08
DEBUG_STATS_RL:                Wvel (DYNAMICS) S.D.=  9.04052207921690E-06
DEBUG_STATS_RL:               Theta (DYNAMICS)  min= -1.95129558912932E+00
DEBUG_STATS_RL:               Theta (DYNAMICS)  max=  3.08243930776439E+01
DEBUG_STATS_RL:               Theta (DYNAMICS) mean=  3.22100854721320E+00
DEBUG_STATS_RL:               Theta (DYNAMICS) S.D.=  5.88287580082575E+00
DEBUG_STATS_RL:                Salt (DYNAMICS)  min= -2.77555756156289E-17
DEBUG_STATS_RL:                Salt (DYNAMICS)  max=  3.74654858601994E+01
DEBUG_STATS_RL:                Salt (DYNAMICS) mean=  1.88447196256283E+01
DEBUG_STATS_RL:                Salt (DYNAMICS) S.D.=  1.73002660224585E+01
DEBUG_STATS_RL:                  Gu (DYNAMICS)  min= -1.21368127258228E-01
DEBUG_STATS_RL:                  Gu (DYNAMICS)  max=  1.45709669638092E-01
DEBUG_STATS_RL:                  Gu (DYNAMICS) mean=  5.94312225728953E-03
DEBUG_STATS_RL:                  Gu (DYNAMICS) S.D.=  2.21148923961801E-02
DEBUG_STATS_RL:                  Gv (DYNAMICS)  min= -9.18928017520317E-02
DEBUG_STATS_RL:                  Gv (DYNAMICS)  max=  1.43868673799419E-01
DEBUG_STATS_RL:                  Gv (DYNAMICS) mean=  3.26192515686449E-03
DEBUG_STATS_RL:                  Gv (DYNAMICS) S.D.=  1.45292929578810E-02
DEBUG_STATS_RL:               GuNm1 (DYNAMICS)  min= -9.99686078813729E-06
DEBUG_STATS_RL:               GuNm1 (DYNAMICS)  max=  9.21942133567714E-06
DEBUG_STATS_RL:               GuNm1 (DYNAMICS) mean=  5.93023126876184E-09
DEBUG_STATS_RL:               GuNm1 (DYNAMICS) S.D.=  1.20918937062070E-06
DEBUG_STATS_RL:               GvNm1 (DYNAMICS)  min= -9.97873236251205E-06
DEBUG_STATS_RL:               GvNm1 (DYNAMICS)  max=  1.56536636802336E-05
DEBUG_STATS_RL:               GvNm1 (DYNAMICS) mean=  7.35163277310198E-07
DEBUG_STATS_RL:               GvNm1 (DYNAMICS) S.D.=  2.62544768778908E-06
DEBUG_STATS_RL:               GtNm1 (DYNAMICS)  min= -4.67778875124207E-06
DEBUG_STATS_RL:               GtNm1 (DYNAMICS)  max=  2.40693651911131E-06
DEBUG_STATS_RL:               GtNm1 (DYNAMICS) mean=  3.29829067245776E-09
DEBUG_STATS_RL:               GtNm1 (DYNAMICS) S.D.=  1.51847863283436E-07
DEBUG_STATS_RL:               GsNm1 (DYNAMICS)  min= -4.69108662268060E-07
DEBUG_STATS_RL:               GsNm1 (DYNAMICS)  max=  3.13220332936307E-07
DEBUG_STATS_RL:               GsNm1 (DYNAMICS) mean= -1.30362706405067E-10
DEBUG_STATS_RL:               GsNm1 (DYNAMICS) S.D.=  1.42747613287179E-08
DEBUG_STATS_RL:    cg2d_b (SOLVE_FOR_PRESSURE)  min= -2.36518174772006E+04
DEBUG_STATS_RL:    cg2d_b (SOLVE_FOR_PRESSURE)  max=  2.36520383545011E+04
DEBUG_STATS_RL:    cg2d_b (SOLVE_FOR_PRESSURE) mean=  4.92321176697958E+00
DEBUG_STATS_RL:    cg2d_b (SOLVE_FOR_PRESSURE) S.D.=  3.91285262085572E+03
 cg2d: Sum(rhs),rhsMax =   4.81871163480033E-01  1.55352920569926E+00
(PID.TID 0000.0001)  cg2d: iter=     1 ; resid.=  7.31556194940106E-02
(PID.TID 0000.0001)  cg2d: iter=     2 ; resid.=  4.60443047515449E-02
(PID.TID 0000.0001)  cg2d: iter=     3 ; resid.=  4.87407627341310E-02
(PID.TID 0000.0001)  cg2d: iter=     4 ; resid.=  5.33979892705797E-02
(PID.TID 0000.0001)  cg2d: iter=     5 ; resid.=  5.29646531530382E-02
(PID.TID 0000.0001)  cg2d: iter=     6 ; resid.=  4.20088104721097E-02
(PID.TID 0000.0001)  cg2d: iter=     7 ; resid.=  3.15864803709640E-02
(PID.TID 0000.0001)  cg2d: iter=     8 ; resid.=  2.30106072074701E-02
(PID.TID 0000.0001)  cg2d: iter=     9 ; resid.=  1.77220011874796E-02
(PID.TID 0000.0001)  cg2d: iter=    10 ; resid.=  1.36580040965192E-02
(PID.TID 0000.0001)  cg2d: iter=    11 ; resid.=  1.07415218684474E-02
(PID.TID 0000.0001)  cg2d: iter=    12 ; resid.=  9.19461370717612E-03
(PID.TID 0000.0001)  cg2d: iter=    13 ; resid.=  7.82013181661563E-03
(PID.TID 0000.0001)  cg2d: iter=    14 ; resid.=  6.50512326591252E-03
(PID.TID 0000.0001)  cg2d: iter=    15 ; resid.=  5.67678499516437E-03
(PID.TID 0000.0001)  cg2d: iter=    16 ; resid.=  5.14860544182125E-03
(PID.TID 0000.0001)  cg2d: iter=    17 ; resid.=  4.61708406069243E-03
(PID.TID 0000.0001)  cg2d: iter=    18 ; resid.=  4.14185241498041E-03
(PID.TID 0000.0001)  cg2d: iter=    19 ; resid.=  3.29194213095435E-03
(PID.TID 0000.0001)  cg2d: iter=    20 ; resid.=  2.59453006335267E-03
(PID.TID 0000.0001)  cg2d: iter=    21 ; resid.=  2.12607261738770E-03
(PID.TID 0000.0001)  cg2d: iter=    22 ; resid.=  1.75583862024481E-03
(PID.TID 0000.0001)  cg2d: iter=    23 ; resid.=  1.51570374514293E-03
(PID.TID 0000.0001)  cg2d: iter=    24 ; resid.=  1.24411819721371E-03
(PID.TID 0000.0001)  cg2d: iter=    25 ; resid.=  1.02187572770387E-03
(PID.TID 0000.0001)  cg2d: iter=    26 ; resid.=  8.14798619539830E-04
(PID.TID 0000.0001)  cg2d: iter=    27 ; resid.=  6.49917622907937E-04
(PID.TID 0000.0001)  cg2d: iter=    28 ; resid.=  5.27971456618485E-04
(PID.TID 0000.0001)  cg2d: iter=    29 ; resid.=  4.24997526982123E-04
(PID.TID 0000.0001)  cg2d: iter=    30 ; resid.=  3.49881829177398E-04
(PID.TID 0000.0001)  cg2d: iter=    31 ; resid.=  3.08701381822844E-04
(PID.TID 0000.0001)  cg2d: iter=    32 ; resid.=  2.52777312318446E-04
(PID.TID 0000.0001)  cg2d: iter=    33 ; resid.=  2.11703006721865E-04
(PID.TID 0000.0001)  cg2d: iter=    34 ; resid.=  1.76386173173542E-04
(PID.TID 0000.0001)  cg2d: iter=    35 ; resid.=  1.39524178094052E-04
(PID.TID 0000.0001)  cg2d: iter=    36 ; resid.=  1.23215062058722E-04
(PID.TID 0000.0001)  cg2d: iter=    37 ; resid.=  1.10527744865343E-04
(PID.TID 0000.0001)  cg2d: iter=    38 ; resid.=  1.02783675071871E-04
(PID.TID 0000.0001)  cg2d: iter=    39 ; resid.=  9.05691702035589E-05
(PID.TID 0000.0001)  cg2d: iter=    40 ; resid.=  7.38739829494032E-05
(PID.TID 0000.0001)  cg2d: iter=    41 ; resid.=  5.31158524239988E-05
(PID.TID 0000.0001)  cg2d: iter=    42 ; resid.=  4.46230358621276E-05
(PID.TID 0000.0001)  cg2d: iter=    43 ; resid.=  4.30825245826806E-05
(PID.TID 0000.0001)  cg2d: iter=    44 ; resid.=  3.65858639678975E-05
(PID.TID 0000.0001)  cg2d: iter=    45 ; resid.=  2.79288606404561E-05
(PID.TID 0000.0001)  cg2d: iter=    46 ; resid.=  2.22593249666664E-05
(PID.TID 0000.0001)  cg2d: iter=    47 ; resid.=  1.80781565118320E-05
(PID.TID 0000.0001)  cg2d: iter=    48 ; resid.=  1.51221886603074E-05
(PID.TID 0000.0001)  cg2d: iter=    49 ; resid.=  1.35476885667326E-05
(PID.TID 0000.0001)  cg2d: iter=    50 ; resid.=  1.17011246678080E-05
(PID.TID 0000.0001)  cg2d: iter=    51 ; resid.=  1.04758765782323E-05
(PID.TID 0000.0001)  cg2d: iter=    52 ; resid.=  8.44879269509807E-06
(PID.TID 0000.0001)  cg2d: iter=    53 ; resid.=  7.20098799154034E-06
(PID.TID 0000.0001)  cg2d: iter=    54 ; resid.=  5.95078666780016E-06
(PID.TID 0000.0001)  cg2d: iter=    55 ; resid.=  4.93231341439581E-06
(PID.TID 0000.0001)  cg2d: iter=    56 ; resid.=  4.03049542900811E-06
(PID.TID 0000.0001)  cg2d: iter=    57 ; resid.=  3.25841014947140E-06
(PID.TID 0000.0001)  cg2d: iter=    58 ; resid.=  2.66568964693380E-06
(PID.TID 0000.0001)  cg2d: iter=    59 ; resid.=  1.93159956838474E-06
(PID.TID 0000.0001)  cg2d: iter=    60 ; resid.=  1.33763609585058E-06
(PID.TID 0000.0001)  cg2d: iter=    61 ; resid.=  1.04209575914813E-06
(PID.TID 0000.0001)  cg2d: iter=    62 ; resid.=  9.15865522148524E-07
(PID.TID 0000.0001)  cg2d: iter=    63 ; resid.=  7.93841961103036E-07
(PID.TID 0000.0001)  cg2d: iter=    64 ; resid.=  6.59739383284109E-07
(PID.TID 0000.0001)  cg2d: iter=    65 ; resid.=  5.42385150341134E-07
(PID.TID 0000.0001)  cg2d: iter=    66 ; resid.=  4.79302994782325E-07
(PID.TID 0000.0001)  cg2d: iter=    67 ; resid.=  3.98088933841633E-07
(PID.TID 0000.0001)  cg2d: iter=    68 ; resid.=  3.41066499895510E-07
(PID.TID 0000.0001)  cg2d: iter=    69 ; resid.=  2.93650363815015E-07
(PID.TID 0000.0001)  cg2d: iter=    70 ; resid.=  2.59639803321986E-07
(PID.TID 0000.0001)  cg2d: iter=    71 ; resid.=  2.10777629241211E-07
(PID.TID 0000.0001)  cg2d: iter=    72 ; resid.=  1.65546892828939E-07
(PID.TID 0000.0001)  cg2d: iter=    73 ; resid.=  1.40823002636115E-07
(PID.TID 0000.0001)  cg2d: iter=    74 ; resid.=  1.22826920682059E-07
(PID.TID 0000.0001)  cg2d: iter=    75 ; resid.=  9.98858655783824E-08
(PID.TID 0000.0001)  cg2d: iter=    76 ; resid.=  7.74848963347546E-08
(PID.TID 0000.0001)  cg2d: iter=    77 ; resid.=  5.87755660387840E-08
(PID.TID 0000.0001)  cg2d: iter=    78 ; resid.=  4.40179234557903E-08
(PID.TID 0000.0001)  cg2d: iter=    79 ; resid.=  3.54200985467263E-08
(PID.TID 0000.0001)  cg2d: iter=    80 ; resid.=  2.82604627502436E-08
(PID.TID 0000.0001)  cg2d: iter=    81 ; resid.=  2.29244455710624E-08
(PID.TID 0000.0001)  cg2d: iter=    82 ; resid.=  1.80264423768421E-08
(PID.TID 0000.0001)  cg2d: iter=    83 ; resid.=  1.33208832008809E-08
(PID.TID 0000.0001)  cg2d: iter=    84 ; resid.=  1.00155095924568E-08
(PID.TID 0000.0001)  cg2d: iter=    85 ; resid.=  6.56030756092316E-09
(PID.TID 0000.0001)  cg2d: iter=    86 ; resid.=  4.54368673880663E-09
(PID.TID 0000.0001)  cg2d: iter=    87 ; resid.=  3.50406781682829E-09
(PID.TID 0000.0001)  cg2d: iter=    88 ; resid.=  2.82072399750091E-09
(PID.TID 0000.0001)  cg2d: iter=    89 ; resid.=  2.30049637718344E-09
(PID.TID 0000.0001)  cg2d: iter=    90 ; resid.=  1.88129549816088E-09
(PID.TID 0000.0001)  cg2d: iter=    91 ; resid.=  1.53637749047727E-09
(PID.TID 0000.0001)  cg2d: iter=    92 ; resid.=  1.18938170807893E-09
(PID.TID 0000.0001)  cg2d: iter=    93 ; resid.=  9.15609225390710E-10
(PID.TID 0000.0001)  cg2d: iter=    94 ; resid.=  7.07335521617490E-10
(PID.TID 0000.0001)  cg2d: iter=    95 ; resid.=  4.94674849055022E-10
(PID.TID 0000.0001)  cg2d: iter=    96 ; resid.=  3.67237581156843E-10
(PID.TID 0000.0001)  cg2d: iter=    97 ; resid.=  2.75530123956238E-10
(PID.TID 0000.0001)  cg2d: iter=    98 ; resid.=  2.06301116056584E-10
(PID.TID 0000.0001)  cg2d: iter=    99 ; resid.=  1.56693394811448E-10
(PID.TID 0000.0001)  cg2d: iter=   100 ; resid.=  1.23056773454012E-10
(PID.TID 0000.0001)  cg2d: iter=   101 ; resid.=  1.02577057318739E-10
(PID.TID 0000.0001)  cg2d: iter=   102 ; resid.=  8.55084860848829E-11
(PID.TID 0000.0001)  cg2d: iter=   103 ; resid.=  6.92797699235112E-11
(PID.TID 0000.0001)  cg2d: iter=   104 ; resid.=  5.06940812755368E-11
(PID.TID 0000.0001)  cg2d: iter=   105 ; resid.=  3.85826120302368E-11
(PID.TID 0000.0001)  cg2d: iter=   106 ; resid.=  3.69171215705465E-11
(PID.TID 0000.0001)  cg2d: iter=   107 ; resid.=  3.23709948611218E-11
(PID.TID 0000.0001)  cg2d: iter=   108 ; resid.=  2.66144521090931E-11
(PID.TID 0000.0001)  cg2d: iter=   109 ; resid.=  2.17526100041166E-11
(PID.TID 0000.0001)  cg2d: iter=   110 ; resid.=  1.62212240854857E-11
(PID.TID 0000.0001)  cg2d: iter=   111 ; resid.=  1.32656804854786E-11
(PID.TID 0000.0001)  cg2d: iter=   112 ; resid.=  1.10403325579291E-11
(PID.TID 0000.0001)  cg2d: iter=   113 ; resid.=  8.82416568906897E-12
(PID.TID 0000.0001)  cg2d: iter=   114 ; resid.=  7.31337019688161E-12
(PID.TID 0000.0001)  cg2d: iter=   115 ; resid.=  5.56559115440970E-12
(PID.TID 0000.0001)  cg2d: iter=   116 ; resid.=  4.12599547263153E-12
(PID.TID 0000.0001)  cg2d: iter=   117 ; resid.=  3.55779999909865E-12
(PID.TID 0000.0001)  cg2d: iter=   118 ; resid.=  2.81377923207556E-12
(PID.TID 0000.0001)  cg2d: iter=   119 ; resid.=  2.23418116226992E-12
(PID.TID 0000.0001)  cg2d: iter=   120 ; resid.=  1.80505896842512E-12
(PID.TID 0000.0001)  cg2d: iter=   121 ; resid.=  1.44530437479406E-12
(PID.TID 0000.0001)  cg2d: iter=   122 ; resid.=  1.13919423169631E-12
(PID.TID 0000.0001)  cg2d: iter=   123 ; resid.=  7.88952166314281E-13
(PID.TID 0000.0001)  cg2d: iter=   124 ; resid.=  5.82472625919173E-13
(PID.TID 0000.0001)  cg2d: iter=   125 ; resid.=  4.26597867603870E-13
(PID.TID 0000.0001)  cg2d: iter=   126 ; resid.=  3.02293045631628E-13
(PID.TID 0000.0001)  cg2d: iter=   127 ; resid.=  2.10113703456946E-13
(PID.TID 0000.0001)  cg2d: iter=   128 ; resid.=  1.50138647350637E-13
(PID.TID 0000.0001)  cg2d: iter=   129 ; resid.=  1.09931566823252E-13
(PID.TID 0000.0001)  cg2d: iter=   130 ; resid.=  7.52447346260569E-14
DEBUG_STATS_RL:    cg2d_x (SOLVE_FOR_PRESSURE)  min= -1.85532786485071E+01
DEBUG_STATS_RL:    cg2d_x (SOLVE_FOR_PRESSURE)  max=  9.33536370890482E+00
DEBUG_STATS_RL:    cg2d_x (SOLVE_FOR_PRESSURE) mean= -1.85117847877538E+00
DEBUG_STATS_RL:    cg2d_x (SOLVE_FOR_PRESSURE) S.D.=  7.17701875784445E+00
(PID.TID 0000.0001)      cg2d_init_res =   2.58908102268312E-01
(PID.TID 0000.0001)      cg2d_iters(min,last) =      -1     130
(PID.TID 0000.0001)      cg2d_last_res =   7.52447346260569E-14
(PID.TID 0000.0001) // =======================================================
(PID.TID 0000.0001) // Begin MONITOR dynamic field statistics
(PID.TID 0000.0001) // =======================================================
(PID.TID 0000.0001) %MON time_tsnumber                =                    72
(PID.TID 0000.0001) %MON time_secondsf                =   6.2208000000000E+06
(PID.TID 0000.0001) %MON dynstat_eta_max              =   9.5161709570894E-01
(PID.TID 0000.0001) %MON dynstat_eta_min              =  -1.8912618398070E+00
(PID.TID 0000.0001) %MON dynstat_eta_mean             =  -5.1367610207379E-03
(PID.TID 0000.0001) %MON dynstat_eta_sd               =   6.3444276724229E-01
(PID.TID 0000.0001) %MON dynstat_eta_del2             =   2.4317085154672E-03
(PID.TID 0000.0001) %MON dynstat_uvel_max             =   1.4766507225629E-01
(PID.TID 0000.0001) %MON dynstat_uvel_min             =  -1.2102713956196E-01
(PID.TID 0000.0001) %MON dynstat_uvel_mean            =   2.3059067550615E-03
(PID.TID 0000.0001) %MON dynstat_uvel_sd              =   1.3261643270392E-02
(PID.TID 0000.0001) %MON dynstat_uvel_del2            =   8.1222280565040E-05
(PID.TID 0000.0001) %MON dynstat_vvel_max             =   1.4293870261528E-01
(PID.TID 0000.0001) %MON dynstat_vvel_min             =  -8.4300477584988E-02
(PID.TID 0000.0001) %MON dynstat_vvel_mean            =   2.9604750747757E-05
(PID.TID 0000.0001) %MON dynstat_vvel_sd              =   8.1222983464904E-03
(PID.TID 0000.0001) %MON dynstat_vvel_del2            =   7.1953431589748E-05
(PID.TID 0000.0001) %MON dynstat_wvel_max             =   1.5984192244453E-04
(PID.TID 0000.0001) %MON dynstat_wvel_min             =  -7.5786900510370E-05
(PID.TID 0000.0001) %MON dynstat_wvel_mean            =   1.4601645107492E-22
(PID.TID 0000.0001) %MON dynstat_wvel_sd              =   1.0200001639197E-05
(PID.TID 0000.0001) %MON dynstat_wvel_del2            =   1.0209874817837E-07
(PID.TID 0000.0001) %MON dynstat_theta_max            =   3.0824393077644E+01
(PID.TID 0000.0001) %MON dynstat_theta_min            =  -1.9512955891293E+00
(PID.TID 0000.0001) %MON dynstat_theta_mean           =   3.6239182581595E+00
(PID.TID 0000.0001) %MON dynstat_theta_sd             =   4.4261808364607E+00
(PID.TID 0000.0001) %MON dynstat_theta_del2           =   4.8631118287368E-03
(PID.TID 0000.0001) %MON dynstat_salt_max             =   3.7465485860199E+01
(PID.TID 0000.0001) %MON dynstat_salt_min             =   2.9894151657924E+01
(PID.TID 0000.0001) %MON dynstat_salt_mean            =   3.4718002568732E+01
(PID.TID 0000.0001) %MON dynstat_salt_sd              =   2.9653035710034E-01
(PID.TID 0000.0001) %MON dynstat_salt_del2            =   9.8782489637355E-04
(PID.TID 0000.0001) %MON dynstat_sst_max              =   3.0824393077644E+01
(PID.TID 0000.0001) %MON dynstat_sst_min              =  -1.9512955891293E+00
(PID.TID 0000.0001) %MON dynstat_sst_mean             =   1.9040231576634E+01
(PID.TID 0000.0001) %MON dynstat_sst_sd               =   9.1221241313838E+00
(PID.TID 0000.0001) %MON dynstat_sst_del2             =   2.8421435657129E-02
(PID.TID 0000.0001) %MON dynstat_sss_max              =   3.7455428457422E+01
(PID.TID 0000.0001) %MON dynstat_sss_min              =   2.9894151657924E+01
(PID.TID 0000.0001) %MON dynstat_sss_mean             =   3.4837519267553E+01
(PID.TID 0000.0001) %MON dynstat_sss_sd               =   9.8415670067555E-01
(PID.TID 0000.0001) %MON dynstat_sss_del2             =   8.0803746497297E-03
(PID.TID 0000.0001) %MON forcing_qnet_max             =   2.8570029703776E+02
(PID.TID 0000.0001) %MON forcing_qnet_min             =  -1.6505270792643E+02
(PID.TID 0000.0001) %MON forcing_qnet_mean            =  -8.1584239886512E+00
(PID.TID 0000.0001) %MON forcing_qnet_sd              =   4.9087615346713E+01
(PID.TID 0000.0001) %MON forcing_qnet_del2            =   8.5584718826358E-01
(PID.TID 0000.0001) %MON forcing_qsw_max              =   0.0000000000000E+00
(PID.TID 0000.0001) %MON forcing_qsw_min              =   0.0000000000000E+00
(PID.TID 0000.0001) %MON forcing_qsw_mean             =   0.0000000000000E+00
(PID.TID 0000.0001) %MON forcing_qsw_sd               =   0.0000000000000E+00
(PID.TID 0000.0001) %MON forcing_qsw_del2             =   0.0000000000000E+00
(PID.TID 0000.0001) %MON forcing_empmr_max            =   6.9131847150553E-05
(PID.TID 0000.0001) %MON forcing_empmr_min            =  -8.1667699210660E-05
(PID.TID 0000.0001) %MON forcing_empmr_mean           =   6.0307077717612E-07
(PID.TID 0000.0001) %MON forcing_empmr_sd             =   2.6389948211674E-05
(PID.TID 0000.0001) %MON forcing_empmr_del2           =   3.6187086686805E-07
(PID.TID 0000.0001) %MON forcing_fu_max               =   3.4978573322296E-01
(PID.TID 0000.0001) %MON forcing_fu_min               =  -3.6306794484456E-01
(PID.TID 0000.0001) %MON forcing_fu_mean              =   2.0079930942554E-02
(PID.TID 0000.0001) %MON forcing_fu_sd                =   9.9921924992738E-02
(PID.TID 0000.0001) %MON forcing_fu_del2              =   7.9937861961633E-04
(PID.TID 0000.0001) %MON forcing_fv_max               =   1.6799971759319E-01
(PID.TID 0000.0001) %MON forcing_fv_min               =  -1.8734046618144E-01
(PID.TID 0000.0001) %MON forcing_fv_mean              =  -7.4878620401667E-03
(PID.TID 0000.0001) %MON forcing_fv_sd                =   4.2084455794319E-02
(PID.TID 0000.0001) %MON forcing_fv_del2              =   4.8631922143069E-04
(PID.TID 0000.0001) %MON trAdv_CFL_u_max              =   4.8742781356968E-02
(PID.TID 0000.0001) %MON trAdv_CFL_v_max              =   2.7802858209273E-02
(PID.TID 0000.0001) %MON trAdv_CFL_w_max              =   3.4205904897263E-02
(PID.TID 0000.0001) %MON advcfl_uvel_max              =   4.8808565993232E-02
(PID.TID 0000.0001) %MON advcfl_vvel_max              =   2.7770697456972E-02
(PID.TID 0000.0001) %MON advcfl_wvel_max              =   3.7836553696458E-02
(PID.TID 0000.0001) %MON advcfl_W_hf_max              =   4.0618653232963E-02
(PID.TID 0000.0001) %MON pe_b_mean                    =   5.1510358212497E-04
(PID.TID 0000.0001) %MON ke_max                       =   1.1792237146369E-02
(PID.TID 0000.0001) %MON ke_mean                      =   1.1193462195765E-04
(PID.TID 0000.0001) %MON ke_vol                       =   1.3226782436723E+18
(PID.TID 0000.0001) %MON vort_r_min                   =  -3.0204244031282E-07
(PID.TID 0000.0001) %MON vort_r_max                   =   4.0614055098631E-07
(PID.TID 0000.0001) %MON vort_a_mean                  =  -2.5274807046838E-05
(PID.TID 0000.0001) %MON vort_a_sd                    =   7.3604655394128E-05
(PID.TID 0000.0001) %MON vort_p_mean                  =  -3.1845655357708E-05
(PID.TID 0000.0001) %MON vort_p_sd                    =   1.3162497698415E-04
(PID.TID 0000.0001) %MON surfExpan_theta_mean         =  -5.5413196239111E-08
(PID.TID 0000.0001) %MON surfExpan_salt_mean          =   6.5903256179300E-08
(PID.TID 0000.0001) // =======================================================
(PID.TID 0000.0001) // End MONITOR dynamic field statistics
(PID.TID 0000.0001) // =======================================================
 EXTERNAL_FIELDS_LOAD,        72 : iP,iLd,i0,i1=    2    3    2    3 ; Wght=  0.1000000000  0.9000000000
 EXTERNAL_FIELDS_LOAD: (fu0,1),fu,fv= -1.4435E-02 -2.7199E-02 -2.5922E-02 -2.2838E-03
 EXTERNAL_FIELDS_LOAD: SST,SSS,Q,E-P= -2.1870E-01  3.4563E+01  2.1790E+02  9.0104E-06
DEBUG_STATS_RL:          Uvel (THERMODYNAMICS)  min= -1.21027139561958E-01
DEBUG_STATS_RL:          Uvel (THERMODYNAMICS)  max=  1.47665072256294E-01
DEBUG_STATS_RL:          Uvel (THERMODYNAMICS) mean=  6.01882821326501E-03
DEBUG_STATS_RL:          Uvel (THERMODYNAMICS) S.D.=  2.17316194849879E-02
DEBUG_STATS_RL:          Vvel (THERMODYNAMICS)  min= -8.43004775849878E-02
DEBUG_STATS_RL:          Vvel (THERMODYNAMICS)  max=  1.42938702615278E-01
DEBUG_STATS_RL:          Vvel (THERMODYNAMICS) mean=  7.02460717606426E-04
DEBUG_STATS_RL:          Vvel (THERMODYNAMICS) S.D.=  1.32753252425157E-02
DEBUG_STATS_RL:          Wvel (THERMODYNAMICS)  min= -7.57869005103696E-05
DEBUG_STATS_RL:          Wvel (THERMODYNAMICS)  max=  1.59841922444529E-04
DEBUG_STATS_RL:          Wvel (THERMODYNAMICS) mean= -6.45989127038180E-08
DEBUG_STATS_RL:          Wvel (THERMODYNAMICS) S.D.=  9.07339633927269E-06
DEBUG_STATS_RL:         Theta (THERMODYNAMICS)  min= -1.95044194994404E+00
DEBUG_STATS_RL:         Theta (THERMODYNAMICS)  max=  3.08516557182770E+01
DEBUG_STATS_RL:         Theta (THERMODYNAMICS) mean=  3.22111997216952E+00
DEBUG_STATS_RL:         Theta (THERMODYNAMICS) S.D.=  5.88339758101185E+00
DEBUG_STATS_RL:          Salt (THERMODYNAMICS)  min= -2.77555756156289E-17
DEBUG_STATS_RL:          Salt (THERMODYNAMICS)  max=  3.74650079084261E+01
DEBUG_STATS_RL:          Salt (THERMODYNAMICS) mean=  1.88447200888759E+01
DEBUG_STATS_RL:          Salt (THERMODYNAMICS) S.D.=  1.73002670318206E+01
DEBUG_STATS_RL:         GtNm1 (THERMODYNAMICS)  min= -4.76396924666803E-06
DEBUG_STATS_RL:         GtNm1 (THERMODYNAMICS)  max=  2.47238752193023E-06
DEBUG_STATS_RL:         GtNm1 (THERMODYNAMICS) mean=  3.10874546286383E-09
DEBUG_STATS_RL:         GtNm1 (THERMODYNAMICS) S.D.=  1.51795121096064E-07
DEBUG_STATS_RL:         GsNm1 (THERMODYNAMICS)  min= -4.67815907057256E-07
DEBUG_STATS_RL:         GsNm1 (THERMODYNAMICS)  max=  3.06907911501295E-07
DEBUG_STATS_RL:         GsNm1 (THERMODYNAMICS) mean= -8.49954939088937E-11
DEBUG_STATS_RL:         GsNm1 (THERMODYNAMICS) S.D.=  1.42482302173122E-08
DEBUG_STATS_RL:                EtaN (DYNAMICS)  min= -1.89126183980701E+00
DEBUG_STATS_RL:                EtaN (DYNAMICS)  max=  9.51617095708944E-01
DEBUG_STATS_RL:                EtaN (DYNAMICS) mean= -1.88703208845605E-01
DEBUG_STATS_RL:                EtaN (DYNAMICS) S.D.=  7.31602319861817E-01
DEBUG_STATS_RL:                Uvel (DYNAMICS)  min= -1.21027139561958E-01
DEBUG_STATS_RL:                Uvel (DYNAMICS)  max=  1.47665072256294E-01
DEBUG_STATS_RL:                Uvel (DYNAMICS) mean=  6.01882821326501E-03
DEBUG_STATS_RL:                Uvel (DYNAMICS) S.D.=  2.17316194849879E-02
DEBUG_STATS_RL:                Vvel (DYNAMICS)  min= -8.43004775849878E-02
DEBUG_STATS_RL:                Vvel (DYNAMICS)  max=  1.42938702615278E-01
DEBUG_STATS_RL:                Vvel (DYNAMICS) mean=  7.02460717606426E-04
DEBUG_STATS_RL:                Vvel (DYNAMICS) S.D.=  1.32753252425157E-02
DEBUG_STATS_RL:                Wvel (DYNAMICS)  min= -7.57869005103696E-05
DEBUG_STATS_RL:                Wvel (DYNAMICS)  max=  1.59841922444529E-04
DEBUG_STATS_RL:                Wvel (DYNAMICS) mean= -6.45989127038180E-08
DEBUG_STATS_RL:                Wvel (DYNAMICS) S.D.=  9.07339633927269E-06
DEBUG_STATS_RL:               Theta (DYNAMICS)  min= -1.95044194994404E+00
DEBUG_STATS_RL:               Theta (DYNAMICS)  max=  3.08516557182770E+01
DEBUG_STATS_RL:               Theta (DYNAMICS) mean=  3.22111997216952E+00
DEBUG_STATS_RL:               Theta (DYNAMICS) S.D.=  5.88339758101185E+00
DEBUG_STATS_RL:                Salt (DYNAMICS)  min= -2.77555756156289E-17
DEBUG_STATS_RL:                Salt (DYNAMICS)  max=  3.74650079084261E+01
DEBUG_STATS_RL:                Salt (DYNAMICS) mean=  1.88447200888759E+01
DEBUG_STATS_RL:                Salt (DYNAMICS) S.D.=  1.73002670318206E+01
DEBUG_STATS_RL:                  Gu (DYNAMICS)  min= -1.20660882958684E-01
DEBUG_STATS_RL:                  Gu (DYNAMICS)  max=  1.45192054387169E-01
DEBUG_STATS_RL:                  Gu (DYNAMICS) mean=  5.99869788819291E-03
DEBUG_STATS_RL:                  Gu (DYNAMICS) S.D.=  2.22716475507994E-02
DEBUG_STATS_RL:                  Gv (DYNAMICS)  min= -8.98797099046157E-02
DEBUG_STATS_RL:                  Gv (DYNAMICS)  max=  1.43047479557617E-01
DEBUG_STATS_RL:                  Gv (DYNAMICS) mean=  3.32496160254316E-03
DEBUG_STATS_RL:                  Gv (DYNAMICS) S.D.=  1.45651443680955E-02
DEBUG_STATS_RL:               GuNm1 (DYNAMICS)  min= -1.00009340587096E-05
DEBUG_STATS_RL:               GuNm1 (DYNAMICS)  max=  9.22344596151583E-06
DEBUG_STATS_RL:               GuNm1 (DYNAMICS) mean=  6.36635057773148E-09
DEBUG_STATS_RL:               GuNm1 (DYNAMICS) S.D.=  1.21141105834484E-06
DEBUG_STATS_RL:               GvNm1 (DYNAMICS)  min= -9.94999769882228E-06
DEBUG_STATS_RL:               GvNm1 (DYNAMICS)  max=  1.56465660236858E-05
DEBUG_STATS_RL:               GvNm1 (DYNAMICS) mean=  7.35295523730363E-07
DEBUG_STATS_RL:               GvNm1 (DYNAMICS) S.D.=  2.62351103944864E-06
DEBUG_STATS_RL:               GtNm1 (DYNAMICS)  min= -4.76396924666803E-06
DEBUG_STATS_RL:               GtNm1 (DYNAMICS)  max=  2.47238752193023E-06
DEBUG_STATS_RL:               GtNm1 (DYNAMICS) mean=  3.10874546286383E-09
DEBUG_STATS_RL:               GtNm1 (DYNAMICS) S.D.=  1.51795121096064E-07
DEBUG_STATS_RL:               GsNm1 (DYNAMICS)  min= -4.67815907057256E-07
DEBUG_STATS_RL:               GsNm1 (DYNAMICS)  max=  3.06907911501295E-07
DEBUG_STATS_RL:               GsNm1 (DYNAMICS) mean= -8.49954939088937E-11
DEBUG_STATS_RL:               GsNm1 (DYNAMICS) S.D.=  1.42482302173122E-08
DEBUG_STATS_RL:    cg2d_b (SOLVE_FOR_PRESSURE)  min= -2.39868730232313E+04
DEBUG_STATS_RL:    cg2d_b (SOLVE_FOR_PRESSURE)  max=  2.39804806666367E+04
DEBUG_STATS_RL:    cg2d_b (SOLVE_FOR_PRESSURE) mean=  4.97041486040267E+00
DEBUG_STATS_RL:    cg2d_b (SOLVE_FOR_PRESSURE) S.D.=  3.90979800697360E+03
 cg2d: Sum(rhs),rhsMax =   4.79700309026790E-01  1.57552204323641E+00
(PID.TID 0000.0001)  cg2d: iter=     1 ; resid.=  7.19503270435100E-02
(PID.TID 0000.0001)  cg2d: iter=     2 ; resid.=  4.52357099950183E-02
(PID.TID 0000.0001)  cg2d: iter=     3 ; resid.=  4.77144925991506E-02
(PID.TID 0000.0001)  cg2d: iter=     4 ; resid.=  5.24833660056074E-02
(PID.TID 0000.0001)  cg2d: iter=     5 ; resid.=  5.20270445184536E-02
(PID.TID 0000.0001)  cg2d: iter=     6 ; resid.=  4.14432419077541E-02
(PID.TID 0000.0001)  cg2d: iter=     7 ; resid.=  3.15095325471874E-02
(PID.TID 0000.0001)  cg2d: iter=     8 ; resid.=  2.30125302087412E-02
(PID.TID 0000.0001)  cg2d: iter=     9 ; resid.=  1.76112411660226E-02
(PID.TID 0000.0001)  cg2d: iter=    10 ; resid.=  1.36116912187318E-02
(PID.TID 0000.0001)  cg2d: iter=    11 ; resid.=  1.07336068722285E-02
(PID.TID 0000.0001)  cg2d: iter=    12 ; resid.=  9.28511777547521E-03
(PID.TID 0000.0001)  cg2d: iter=    13 ; resid.=  7.88191536028439E-03
(PID.TID 0000.0001)  cg2d: iter=    14 ; resid.=  6.61968170720760E-03
(PID.TID 0000.0001)  cg2d: iter=    15 ; resid.=  5.78233185640417E-03
(PID.TID 0000.0001)  cg2d: iter=    16 ; resid.=  5.20334843172939E-03
(PID.TID 0000.0001)  cg2d: iter=    17 ; resid.=  4.63121488566792E-03
(PID.TID 0000.0001)  cg2d: iter=    18 ; resid.=  4.13221843252515E-03
(PID.TID 0000.0001)  cg2d: iter=    19 ; resid.=  3.27463637740804E-03
(PID.TID 0000.0001)  cg2d: iter=    20 ; resid.=  2.56934402601939E-03
(PID.TID 0000.0001)  cg2d: iter=    21 ; resid.=  2.10416673766502E-03
(PID.TID 0000.0001)  cg2d: iter=    22 ; resid.=  1.73272721160518E-03
(PID.TID 0000.0001)  cg2d: iter=    23 ; resid.=  1.52022199597479E-03
(PID.TID 0000.0001)  cg2d: iter=    24 ; resid.=  1.26807034930954E-03
(PID.TID 0000.0001)  cg2d: iter=    25 ; resid.=  1.04220779613615E-03
(PID.TID 0000.0001)  cg2d: iter=    26 ; resid.=  8.39885290136582E-04
(PID.TID 0000.0001)  cg2d: iter=    27 ; resid.=  6.57109464581375E-04
(PID.TID 0000.0001)  cg2d: iter=    28 ; resid.=  5.32722259804228E-04
(PID.TID 0000.0001)  cg2d: iter=    29 ; resid.=  4.26645615782088E-04
(PID.TID 0000.0001)  cg2d: iter=    30 ; resid.=  3.52232408386020E-04
(PID.TID 0000.0001)  cg2d: iter=    31 ; resid.=  3.08505368451428E-04
(PID.TID 0000.0001)  cg2d: iter=    32 ; resid.=  2.50344234978277E-04
(PID.TID 0000.0001)  cg2d: iter=    33 ; resid.=  2.12222716403498E-04
(PID.TID 0000.0001)  cg2d: iter=    34 ; resid.=  1.77174267157275E-04
(PID.TID 0000.0001)  cg2d: iter=    35 ; resid.=  1.40667895180653E-04
(PID.TID 0000.0001)  cg2d: iter=    36 ; resid.=  1.23986873796814E-04
(PID.TID 0000.0001)  cg2d: iter=    37 ; resid.=  1.12079773493003E-04
(PID.TID 0000.0001)  cg2d: iter=    38 ; resid.=  1.04591259878183E-04
(PID.TID 0000.0001)  cg2d: iter=    39 ; resid.=  9.19433283444178E-05
(PID.TID 0000.0001)  cg2d: iter=    40 ; resid.=  7.47376258855820E-05
(PID.TID 0000.0001)  cg2d: iter=    41 ; resid.=  5.37052223255431E-05
(PID.TID 0000.0001)  cg2d: iter=    42 ; resid.=  4.51251835329131E-05
(PID.TID 0000.0001)  cg2d: iter=    43 ; resid.=  4.30198377182782E-05
(PID.TID 0000.0001)  cg2d: iter=    44 ; resid.=  3.66589422486426E-05
(PID.TID 0000.0001)  cg2d: iter=    45 ; resid.=  2.82503749202211E-05
(PID.TID 0000.0001)  cg2d: iter=    46 ; resid.=  2.25876734515360E-05
(PID.TID 0000.0001)  cg2d: iter=    47 ; resid.=  1.82783841800399E-05
(PID.TID 0000.0001)  cg2d: iter=    48 ; resid.=  1.51842190578596E-05
(PID.TID 0000.0001)  cg2d: iter=    49 ; resid.=  1.34013408951032E-05
(PID.TID 0000.0001)  cg2d: iter=    50 ; resid.=  1.15897555289613E-05
(PID.TID 0000.0001)  cg2d: iter=    51 ; resid.=  1.05013466713486E-05
(PID.TID 0000.0001)  cg2d: iter=    52 ; resid.=  8.57583074594455E-06
(PID.TID 0000.0001)  cg2d: iter=    53 ; resid.=  7.29889595077595E-06
(PID.TID 0000.0001)  cg2d: iter=    54 ; resid.=  5.93481323066222E-06
(PID.TID 0000.0001)  cg2d: iter=    55 ; resid.=  4.89899050751377E-06
(PID.TID 0000.0001)  cg2d: iter=    56 ; resid.=  3.98293454428324E-06
(PID.TID 0000.0001)  cg2d: iter=    57 ; resid.=  3.20856848189579E-06
(PID.TID 0000.0001)  cg2d: iter=    58 ; resid.=  2.61554015806513E-06
(PID.TID 0000.0001)  cg2d: iter=    59 ; resid.=  1.88946566314480E-06
(PID.TID 0000.0001)  cg2d: iter=    60 ; resid.=  1.30514144241985E-06
(PID.TID 0000.0001)  cg2d: iter=    61 ; resid.=  1.01816154287735E-06
(PID.TID 0000.0001)  cg2d: iter=    62 ; resid.=  8.99287713868379E-07
(PID.TID 0000.0001)  cg2d: iter=    63 ; resid.=  7.95079296258178E-07
(PID.TID 0000.0001)  cg2d: iter=    64 ; resid.=  6.69499534235403E-07
(PID.TID 0000.0001)  cg2d: iter=    65 ; resid.=  5.48973107694944E-07
(PID.TID 0000.0001)  cg2d: iter=    66 ; resid.=  4.76999263821506E-07
(PID.TID 0000.0001)  cg2d: iter=    67 ; resid.=  3.92260206729636E-07
(PID.TID 0000.0001)  cg2d: iter=    68 ; resid.=  3.30277106232644E-07
(PID.TID 0000.0001)  cg2d: iter=    69 ; resid.=  2.81342967308214E-07
(PID.TID 0000.0001)  cg2d: iter=    70 ; resid.=  2.49486953713548E-07
(PID.TID 0000.0001)  cg2d: iter=    71 ; resid.=  2.05457515786247E-07
(PID.TID 0000.0001)  cg2d: iter=    72 ; resid.=  1.65659144792128E-07
(PID.TID 0000.0001)  cg2d: iter=    73 ; resid.=  1.41949768689219E-07
(PID.TID 0000.0001)  cg2d: iter=    74 ; resid.=  1.23821053669928E-07
(PID.TID 0000.0001)  cg2d: iter=    75 ; resid.=  9.93891171757035E-08
(PID.TID 0000.0001)  cg2d: iter=    76 ; resid.=  7.72531791015608E-08
(PID.TID 0000.0001)  cg2d: iter=    77 ; resid.=  5.80332547421010E-08
(PID.TID 0000.0001)  cg2d: iter=    78 ; resid.=  4.30062025643659E-08
(PID.TID 0000.0001)  cg2d: iter=    79 ; resid.=  3.39465705801279E-08
(PID.TID 0000.0001)  cg2d: iter=    80 ; resid.=  2.68003733923940E-08
(PID.TID 0000.0001)  cg2d: iter=    81 ; resid.=  2.20604008056961E-08
(PID.TID 0000.0001)  cg2d: iter=    82 ; resid.=  1.74559132269059E-08
(PID.TID 0000.0001)  cg2d: iter=    83 ; resid.=  1.30427545013729E-08
(PID.TID 0000.0001)  cg2d: iter=    84 ; resid.=  9.76168739632970E-09
(PID.TID 0000.0001)  cg2d: iter=    85 ; resid.=  6.31817600940618E-09
(PID.TID 0000.0001)  cg2d: iter=    86 ; resid.=  4.34240293090784E-09
(PID.TID 0000.0001)  cg2d: iter=    87 ; resid.=  3.24392032700436E-09
(PID.TID 0000.0001)  cg2d: iter=    88 ; resid.=  2.54348853058747E-09
(PID.TID 0000.0001)  cg2d: iter=    89 ; resid.=  2.06634006752367E-09
(PID.TID 0000.0001)  cg2d: iter=    90 ; resid.=  1.71049114864557E-09
(PID.TID 0000.0001)  cg2d: iter=    91 ; resid.=  1.41541572436714E-09
(PID.TID 0000.0001)  cg2d: iter=    92 ; resid.=  1.10774509834109E-09
(PID.TID 0000.0001)  cg2d: iter=    93 ; resid.=  8.47665618456792E-10
(PID.TID 0000.0001)  cg2d: iter=    94 ; resid.=  6.53822856194813E-10
(PID.TID 0000.0001)  cg2d: iter=    95 ; resid.=  4.61914554992788E-10
(PID.TID 0000.0001)  cg2d: iter=    96 ; resid.=  3.50066584144628E-10
(PID.TID 0000.0001)  cg2d: iter=    97 ; resid.=  2.64018666257014E-10
(PID.TID 0000.0001)  cg2d: iter=    98 ; resid.=  1.96876041643059E-10
(PID.TID 0000.0001)  cg2d: iter=    99 ; resid.=  1.48431135215089E-10
(PID.TID 0000.0001)  cg2d: iter=   100 ; resid.=  1.18219772407219E-10
(PID.TID 0000.0001)  cg2d: iter=   101 ; resid.=  9.96700195598038E-11
(PID.TID 0000.0001)  cg2d: iter=   102 ; resid.=  8.38723382195385E-11
(PID.TID 0000.0001)  cg2d: iter=   103 ; resid.=  6.83782052810190E-11
(PID.TID 0000.0001)  cg2d: iter=   104 ; resid.=  5.05657610379998E-11
(PID.TID 0000.0001)  cg2d: iter=   105 ; resid.=  3.88170471418274E-11
(PID.TID 0000.0001)  cg2d: iter=   106 ; resid.=  3.65218230013239E-11
(PID.TID 0000.0001)  cg2d: iter=   107 ; resid.=  3.21187097628145E-11
(PID.TID 0000.0001)  cg2d: iter=   108 ; resid.=  2.67547692151815E-11
(PID.TID 0000.0001)  cg2d: iter=   109 ; resid.=  2.19549181645901E-11
(PID.TID 0000.0001)  cg2d: iter=   110 ; resid.=  1.62739369709858E-11
(PID.TID 0000.0001)  cg2d: iter=   111 ; resid.=  1.32094006001124E-11
(PID.TID 0000.0001)  cg2d: iter=   112 ; resid.=  1.07568124672263E-11
(PID.TID 0000.0001)  cg2d: iter=   113 ; resid.=  8.41988167759055E-12
(PID.TID 0000.0001)  cg2d: iter=   114 ; resid.=  6.90399608970945E-12
(PID.TID 0000.0001)  cg2d: iter=   115 ; resid.=  5.24551318729420E-12
(PID.TID 0000.0001)  cg2d: iter=   116 ; resid.=  3.96021702836170E-12
(PID.TID 0000.0001)  cg2d: iter=   117 ; resid.=  3.45990260918560E-12
(PID.TID 0000.0001)  cg2d: iter=   118 ; resid.=  2.74357272176916E-12
(PID.TID 0000.0001)  cg2d: iter=   119 ; resid.=  2.15157570604987E-12
(PID.TID 0000.0001)  cg2d: iter=   120 ; resid.=  1.69436883990167E-12
(PID.TID 0000.0001)  cg2d: iter=   121 ; resid.=  1.34246904979408E-12
(PID.TID 0000.0001)  cg2d: iter=   122 ; resid.=  1.05562131663507E-12
(PID.TID 0000.0001)  cg2d: iter=   123 ; resid.=  7.49835190558556E-13
(PID.TID 0000.0001)  cg2d: iter=   124 ; resid.=  5.65627187334628E-13
(PID.TID 0000.0001)  cg2d: iter=   125 ; resid.=  4.19126135524291E-13
(PID.TID 0000.0001)  cg2d: iter=   126 ; resid.=  2.98367498651517E-13
(PID.TID 0000.0001)  cg2d: iter=   127 ; resid.=  2.04521804303071E-13
(PID.TID 0000.0001)  cg2d: iter=   128 ; resid.=  1.45639944110811E-13
(PID.TID 0000.0001)  cg2d: iter=   129 ; resid.=  1.09103366247774E-13
(PID.TID 0000.0001)  cg2d: iter=   130 ; resid.=  7.73537548037737E-14
DEBUG_STATS_RL:    cg2d_x (SOLVE_FOR_PRESSURE)  min= -1.85432901914088E+01
DEBUG_STATS_RL:    cg2d_x (SOLVE_FOR_PRESSURE)  max=  9.26007684705969E+00
DEBUG_STATS_RL:    cg2d_x (SOLVE_FOR_PRESSURE) mean= -1.84735075932277E+00
DEBUG_STATS_RL:    cg2d_x (SOLVE_FOR_PRESSURE) S.D.=  7.14803000283063E+00
(PID.TID 0000.0001)      cg2d_init_res =   2.54232155410358E-01
(PID.TID 0000.0001)      cg2d_iters(min,last) =      -1     130
(PID.TID 0000.0001)      cg2d_last_res =   7.73537548037737E-14
(PID.TID 0000.0001) // =======================================================
(PID.TID 0000.0001) // Begin MONITOR dynamic field statistics
(PID.TID 0000.0001) // =======================================================
(PID.TID 0000.0001) %MON time_tsnumber                =                    73
(PID.TID 0000.0001) %MON time_secondsf                =   6.3072000000000E+06
(PID.TID 0000.0001) %MON dynstat_eta_max              =   9.4394259399182E-01
(PID.TID 0000.0001) %MON dynstat_eta_min              =  -1.8902436484617E+00
(PID.TID 0000.0001) %MON dynstat_eta_mean             =  -5.1860115957331E-03
(PID.TID 0000.0001) %MON dynstat_eta_sd               =   6.3072903303861E-01
(PID.TID 0000.0001) %MON dynstat_eta_del2             =   2.4341286219135E-03
(PID.TID 0000.0001) %MON dynstat_uvel_max             =   1.4687511107481E-01
(PID.TID 0000.0001) %MON dynstat_uvel_min             =  -1.2038483436850E-01
(PID.TID 0000.0001) %MON dynstat_uvel_mean            =   2.3361187119338E-03
(PID.TID 0000.0001) %MON dynstat_uvel_sd              =   1.3372392565579E-02
(PID.TID 0000.0001) %MON dynstat_uvel_del2            =   8.1599770153385E-05
(PID.TID 0000.0001) %MON dynstat_vvel_max             =   1.4182329197917E-01
(PID.TID 0000.0001) %MON dynstat_vvel_min             =  -8.2209225100818E-02
(PID.TID 0000.0001) %MON dynstat_vvel_mean            =   2.7988098330891E-05
(PID.TID 0000.0001) %MON dynstat_vvel_sd              =   8.1169642074526E-03
(PID.TID 0000.0001) %MON dynstat_vvel_del2            =   7.1988717214806E-05
(PID.TID 0000.0001) %MON dynstat_wvel_max             =   1.6410026986956E-04
(PID.TID 0000.0001) %MON dynstat_wvel_min             =  -7.5716726840420E-05
(PID.TID 0000.0001) %MON dynstat_wvel_mean            =   9.5314383041446E-23
(PID.TID 0000.0001) %MON dynstat_wvel_sd              =   1.0225672909734E-05
(PID.TID 0000.0001) %MON dynstat_wvel_del2            =   1.0191804693494E-07
(PID.TID 0000.0001) %MON dynstat_theta_max            =   3.0851655718277E+01
(PID.TID 0000.0001) %MON dynstat_theta_min            =  -1.9504419499440E+00
(PID.TID 0000.0001) %MON dynstat_theta_mean           =   3.6239637862880E+00
(PID.TID 0000.0001) %MON dynstat_theta_sd             =   4.4263959974467E+00
(PID.TID 0000.0001) %MON dynstat_theta_del2           =   4.8593141590854E-03
(PID.TID 0000.0001) %MON dynstat_salt_max             =   3.7465007908426E+01
(PID.TID 0000.0001) %MON dynstat_salt_min             =   2.9896790919137E+01
(PID.TID 0000.0001) %MON dynstat_salt_mean            =   3.4718001796088E+01
(PID.TID 0000.0001) %MON dynstat_salt_sd              =   2.9653469135879E-01
(PID.TID 0000.0001) %MON dynstat_salt_del2            =   9.8804688381524E-04
(PID.TID 0000.0001) %MON dynstat_sst_max              =   3.0851655718277E+01
(PID.TID 0000.0001) %MON dynstat_sst_min              =  -1.9504419499440E+00
(PID.TID 0000.0001) %MON dynstat_sst_mean             =   1.9043507501386E+01
(PID.TID 0000.0001) %MON dynstat_sst_sd               =   9.1282633695066E+00
(PID.TID 0000.0001) %MON dynstat_sst_del2             =   2.8455976812055E-02
(PID.TID 0000.0001) %MON dynstat_sss_max              =   3.7456039923538E+01
(PID.TID 0000.0001) %MON dynstat_sss_min              =   2.9896790919137E+01
(PID.TID 0000.0001) %MON dynstat_sss_mean             =   3.4837471149620E+01
(PID.TID 0000.0001) %MON dynstat_sss_sd               =   9.8444122272379E-01
(PID.TID 0000.0001) %MON dynstat_sss_del2             =   8.0891961349675E-03
(PID.TID 0000.0001) %MON forcing_qnet_max             =   2.8290214538574E+02
(PID.TID 0000.0001) %MON forcing_qnet_min             =  -1.6475342864990E+02
(PID.TID 0000.0001) %MON forcing_qnet_mean            =  -7.9350844890245E+00
(PID.TID 0000.0001) %MON forcing_qnet_sd              =   4.8359280419463E+01
(PID.TID 0000.0001) %MON forcing_qnet_del2            =   8.5469072359426E-01
(PID.TID 0000.0001) %MON forcing_qsw_max              =   0.0000000000000E+00
(PID.TID 0000.0001) %MON forcing_qsw_min              =   0.0000000000000E+00
(PID.TID 0000.0001) %MON forcing_qsw_mean             =   0.0000000000000E+00
(PID.TID 0000.0001) %MON forcing_qsw_sd               =   0.0000000000000E+00
(PID.TID 0000.0001) %MON forcing_qsw_del2             =   0.0000000000000E+00
(PID.TID 0000.0001) %MON forcing_empmr_max            =   6.9126090807003E-05
(PID.TID 0000.0001) %MON forcing_empmr_min            =  -8.2066878803744E-05
(PID.TID 0000.0001) %MON forcing_empmr_mean           =   5.8998084630176E-07
(PID.TID 0000.0001) %MON forcing_empmr_sd             =   2.6360875711591E-05
(PID.TID 0000.0001) %MON forcing_empmr_del2           =   3.6293820427634E-07
(PID.TID 0000.0001) %MON forcing_fu_max               =   3.5172714889050E-01
(PID.TID 0000.0001) %MON forcing_fu_min               =  -3.6944006383419E-01
(PID.TID 0000.0001) %MON forcing_fu_mean              =   2.0174130532013E-02
(PID.TID 0000.0001) %MON forcing_fu_sd                =   1.0044956754346E-01
(PID.TID 0000.0001) %MON forcing_fu_del2              =   8.1088351437561E-04
(PID.TID 0000.0001) %MON forcing_fv_max               =   1.7182487472892E-01
(PID.TID 0000.0001) %MON forcing_fv_min               =  -1.8883825689554E-01
(PID.TID 0000.0001) %MON forcing_fv_mean              =  -7.4982903901361E-03
(PID.TID 0000.0001) %MON forcing_fv_sd                =   4.2208471990419E-02
(PID.TID 0000.0001) %MON forcing_fv_del2              =   4.9097367067402E-04
(PID.TID 0000.0001) %MON trAdv_CFL_u_max              =   4.8818479362069E-02
(PID.TID 0000.0001) %MON trAdv_CFL_v_max              =   2.7657531323791E-02
(PID.TID 0000.0001) %MON trAdv_CFL_w_max              =   3.5411133587711E-02
(PID.TID 0000.0001) %MON advcfl_uvel_max              =   4.8547455685496E-02
(PID.TID 0000.0001) %MON advcfl_vvel_max              =   2.7553991059411E-02
(PID.TID 0000.0001) %MON advcfl_wvel_max              =   3.8844557032137E-02
(PID.TID 0000.0001) %MON advcfl_W_hf_max              =   4.1700774460971E-02
(PID.TID 0000.0001) %MON pe_b_mean                    =   5.0909192052927E-04
(PID.TID 0000.0001) %MON ke_max                       =   1.1940852609068E-02
(PID.TID 0000.0001) %MON ke_mean                      =   1.1329950046287E-04
(PID.TID 0000.0001) %MON ke_vol                       =   1.3226782436723E+18
(PID.TID 0000.0001) %MON vort_r_min                   =  -3.0781789272304E-07
(PID.TID 0000.0001) %MON vort_r_max                   =   4.0533010373832E-07
(PID.TID 0000.0001) %MON vort_a_mean                  =  -2.5274807046261E-05
(PID.TID 0000.0001) %MON vort_a_sd                    =   7.3604660327987E-05
(PID.TID 0000.0001) %MON vort_p_mean                  =  -3.1845655356981E-05
(PID.TID 0000.0001) %MON vort_p_sd                    =   1.3162495288775E-04
(PID.TID 0000.0001) %MON surfExpan_theta_mean         =  -4.1238583129026E-08
(PID.TID 0000.0001) %MON surfExpan_salt_mean          =   6.4510810817172E-08
(PID.TID 0000.0001) // =======================================================
(PID.TID 0000.0001) // End MONITOR dynamic field statistics
(PID.TID 0000.0001) // =======================================================
 EXTERNAL_FIELDS_LOAD,        73 : iP,iLd,i0,i1=    2    3    2    3 ; Wght=  0.0666666667  0.9333333333
 EXTERNAL_FIELDS_LOAD: (fu0,1),fu,fv= -1.4435E-02 -2.7199E-02 -2.6348E-02 -1.7152E-03
 EXTERNAL_FIELDS_LOAD: SST,SSS,Q,E-P= -2.0710E-01  3.4569E+01  2.1707E+02  9.0339E-06
DEBUG_STATS_RL:          Uvel (THERMODYNAMICS)  min= -1.20384834368504E-01
DEBUG_STATS_RL:          Uvel (THERMODYNAMICS)  max=  1.46875111074810E-01
DEBUG_STATS_RL:          Uvel (THERMODYNAMICS) mean=  6.07822717321331E-03
DEBUG_STATS_RL:          Uvel (THERMODYNAMICS) S.D.=  2.18861164425552E-02
DEBUG_STATS_RL:          Vvel (THERMODYNAMICS)  min= -8.22092251008178E-02
DEBUG_STATS_RL:          Vvel (THERMODYNAMICS)  max=  1.41823291979165E-01
DEBUG_STATS_RL:          Vvel (THERMODYNAMICS) mean=  7.58834424015387E-04
DEBUG_STATS_RL:          Vvel (THERMODYNAMICS) S.D.=  1.32700782890811E-02
DEBUG_STATS_RL:          Wvel (THERMODYNAMICS)  min= -7.57167268404201E-05
DEBUG_STATS_RL:          Wvel (THERMODYNAMICS)  max=  1.64100269869561E-04
DEBUG_STATS_RL:          Wvel (THERMODYNAMICS) mean= -4.98666606772557E-08
DEBUG_STATS_RL:          Wvel (THERMODYNAMICS) S.D.=  9.10282489419679E-06
DEBUG_STATS_RL:         Theta (THERMODYNAMICS)  min= -1.94960822022202E+00
DEBUG_STATS_RL:         Theta (THERMODYNAMICS)  max=  3.08786568883955E+01
DEBUG_STATS_RL:         Theta (THERMODYNAMICS) mean=  3.22121685344488E+00
DEBUG_STATS_RL:         Theta (THERMODYNAMICS) S.D.=  5.88391619857596E+00
DEBUG_STATS_RL:          Salt (THERMODYNAMICS)  min= -2.77555756156289E-17
DEBUG_STATS_RL:          Salt (THERMODYNAMICS)  max=  3.74645196392676E+01
DEBUG_STATS_RL:          Salt (THERMODYNAMICS) mean=  1.88447222339124E+01
DEBUG_STATS_RL:          Salt (THERMODYNAMICS) S.D.=  1.73002695967384E+01
DEBUG_STATS_RL:         GtNm1 (THERMODYNAMICS)  min= -4.56137842760866E-06
DEBUG_STATS_RL:         GtNm1 (THERMODYNAMICS)  max=  2.33342303897412E-06
DEBUG_STATS_RL:         GtNm1 (THERMODYNAMICS) mean=  2.82846851723678E-09
DEBUG_STATS_RL:         GtNm1 (THERMODYNAMICS) S.D.=  1.48724151951032E-07
DEBUG_STATS_RL:         GsNm1 (THERMODYNAMICS)  min= -4.42033795894971E-07
DEBUG_STATS_RL:         GsNm1 (THERMODYNAMICS)  max=  2.88555848856261E-07
DEBUG_STATS_RL:         GsNm1 (THERMODYNAMICS) mean= -4.73419754905031E-11
DEBUG_STATS_RL:         GsNm1 (THERMODYNAMICS) S.D.=  1.38507905947170E-08
DEBUG_STATS_RL:                EtaN (DYNAMICS)  min= -1.89024364846174E+00
DEBUG_STATS_RL:                EtaN (DYNAMICS)  max=  9.43942593991822E-01
DEBUG_STATS_RL:                EtaN (DYNAMICS) mean= -1.88313023376431E-01
DEBUG_STATS_RL:                EtaN (DYNAMICS) S.D.=  7.28647298963368E-01
DEBUG_STATS_RL:                Uvel (DYNAMICS)  min= -1.20384834368504E-01
DEBUG_STATS_RL:                Uvel (DYNAMICS)  max=  1.46875111074810E-01
DEBUG_STATS_RL:                Uvel (DYNAMICS) mean=  6.07822717321331E-03
DEBUG_STATS_RL:                Uvel (DYNAMICS) S.D.=  2.18861164425552E-02
DEBUG_STATS_RL:                Vvel (DYNAMICS)  min= -8.22092251008178E-02
DEBUG_STATS_RL:                Vvel (DYNAMICS)  max=  1.41823291979165E-01
DEBUG_STATS_RL:                Vvel (DYNAMICS) mean=  7.58834424015387E-04
DEBUG_STATS_RL:                Vvel (DYNAMICS) S.D.=  1.32700782890811E-02
DEBUG_STATS_RL:                Wvel (DYNAMICS)  min= -7.57167268404201E-05
DEBUG_STATS_RL:                Wvel (DYNAMICS)  max=  1.64100269869561E-04
DEBUG_STATS_RL:                Wvel (DYNAMICS) mean= -4.98666606772557E-08
DEBUG_STATS_RL:                Wvel (DYNAMICS) S.D.=  9.10282489419679E-06
DEBUG_STATS_RL:               Theta (DYNAMICS)  min= -1.94960822022202E+00
DEBUG_STATS_RL:               Theta (DYNAMICS)  max=  3.08786568883955E+01
DEBUG_STATS_RL:               Theta (DYNAMICS) mean=  3.22121685344488E+00
DEBUG_STATS_RL:               Theta (DYNAMICS) S.D.=  5.88391619857596E+00
DEBUG_STATS_RL:                Salt (DYNAMICS)  min= -2.77555756156289E-17
DEBUG_STATS_RL:                Salt (DYNAMICS)  max=  3.74645196392676E+01
DEBUG_STATS_RL:                Salt (DYNAMICS) mean=  1.88447222339124E+01
DEBUG_STATS_RL:                Salt (DYNAMICS) S.D.=  1.73002695967384E+01
DEBUG_STATS_RL:                  Gu (DYNAMICS)  min= -1.19901528535063E-01
DEBUG_STATS_RL:                  Gu (DYNAMICS)  max=  1.43927920120785E-01
DEBUG_STATS_RL:                  Gu (DYNAMICS) mean=  6.04491518471811E-03
DEBUG_STATS_RL:                  Gu (DYNAMICS) S.D.=  2.23966829747928E-02
DEBUG_STATS_RL:                  Gv (DYNAMICS)  min= -8.70640243350329E-02
DEBUG_STATS_RL:                  Gv (DYNAMICS)  max=  1.41868213444988E-01
DEBUG_STATS_RL:                  Gv (DYNAMICS) mean=  3.38885503839242E-03
DEBUG_STATS_RL:                  Gv (DYNAMICS) S.D.=  1.46044859962624E-02
DEBUG_STATS_RL:               GuNm1 (DYNAMICS)  min= -1.00012639591773E-05
DEBUG_STATS_RL:               GuNm1 (DYNAMICS)  max=  9.22910241745294E-06
DEBUG_STATS_RL:               GuNm1 (DYNAMICS) mean=  6.82137424405600E-09
DEBUG_STATS_RL:               GuNm1 (DYNAMICS) S.D.=  1.21380612067629E-06
DEBUG_STATS_RL:               GvNm1 (DYNAMICS)  min= -9.91670778877644E-06
DEBUG_STATS_RL:               GvNm1 (DYNAMICS)  max=  1.56393312573214E-05
DEBUG_STATS_RL:               GvNm1 (DYNAMICS) mean=  7.35464418003320E-07
DEBUG_STATS_RL:               GvNm1 (DYNAMICS) S.D.=  2.62171775881891E-06
DEBUG_STATS_RL:               GtNm1 (DYNAMICS)  min= -4.56137842760866E-06
DEBUG_STATS_RL:               GtNm1 (DYNAMICS)  max=  2.33342303897412E-06
DEBUG_STATS_RL:               GtNm1 (DYNAMICS) mean=  2.82846851723678E-09
DEBUG_STATS_RL:               GtNm1 (DYNAMICS) S.D.=  1.48724151951032E-07
DEBUG_STATS_RL:               GsNm1 (DYNAMICS)  min= -4.42033795894971E-07
DEBUG_STATS_RL:               GsNm1 (DYNAMICS)  max=  2.88555848856261E-07
DEBUG_STATS_RL:               GsNm1 (DYNAMICS) mean= -4.73419754905031E-11
DEBUG_STATS_RL:               GsNm1 (DYNAMICS) S.D.=  1.38507905947170E-08
DEBUG_STATS_RL:    cg2d_b (SOLVE_FOR_PRESSURE)  min= -2.42913261892876E+04
DEBUG_STATS_RL:    cg2d_b (SOLVE_FOR_PRESSURE)  max=  2.43222762811208E+04
DEBUG_STATS_RL:    cg2d_b (SOLVE_FOR_PRESSURE) mean=  5.01657065672362E+00
DEBUG_STATS_RL:    cg2d_b (SOLVE_FOR_PRESSURE) S.D.=  3.90736710408741E+03
 cg2d: Sum(rhs),rhsMax =   4.77478379740751E-01  1.59755222723189E+00
(PID.TID 0000.0001)  cg2d: iter=     1 ; resid.=  7.03682805234394E-02
(PID.TID 0000.0001)  cg2d: iter=     2 ; resid.=  4.37591537797423E-02
(PID.TID 0000.0001)  cg2d: iter=     3 ; resid.=  4.54103915889662E-02
(PID.TID 0000.0001)  cg2d: iter=     4 ; resid.=  5.01714482481277E-02
(PID.TID 0000.0001)  cg2d: iter=     5 ; resid.=  4.99326648843654E-02
(PID.TID 0000.0001)  cg2d: iter=     6 ; resid.=  4.01386272515338E-02
(PID.TID 0000.0001)  cg2d: iter=     7 ; resid.=  3.09388999340757E-02
(PID.TID 0000.0001)  cg2d: iter=     8 ; resid.=  2.26918654888280E-02
(PID.TID 0000.0001)  cg2d: iter=     9 ; resid.=  1.72854390280300E-02
(PID.TID 0000.0001)  cg2d: iter=    10 ; resid.=  1.34390067053843E-02
(PID.TID 0000.0001)  cg2d: iter=    11 ; resid.=  1.05946621543303E-02
(PID.TID 0000.0001)  cg2d: iter=    12 ; resid.=  9.22450356786366E-03
(PID.TID 0000.0001)  cg2d: iter=    13 ; resid.=  7.80254367850606E-03
(PID.TID 0000.0001)  cg2d: iter=    14 ; resid.=  6.62240163302403E-03
(PID.TID 0000.0001)  cg2d: iter=    15 ; resid.=  5.78286976594906E-03
(PID.TID 0000.0001)  cg2d: iter=    16 ; resid.=  5.13314558950602E-03
(PID.TID 0000.0001)  cg2d: iter=    17 ; resid.=  4.53423008202113E-03
(PID.TID 0000.0001)  cg2d: iter=    18 ; resid.=  4.03162230526765E-03
(PID.TID 0000.0001)  cg2d: iter=    19 ; resid.=  3.20761925153374E-03
(PID.TID 0000.0001)  cg2d: iter=    20 ; resid.=  2.51138270839404E-03
(PID.TID 0000.0001)  cg2d: iter=    21 ; resid.=  2.04990275512587E-03
(PID.TID 0000.0001)  cg2d: iter=    22 ; resid.=  1.68627703717458E-03
(PID.TID 0000.0001)  cg2d: iter=    23 ; resid.=  1.50068399215916E-03
(PID.TID 0000.0001)  cg2d: iter=    24 ; resid.=  1.27153910521198E-03
(PID.TID 0000.0001)  cg2d: iter=    25 ; resid.=  1.04764315796829E-03
(PID.TID 0000.0001)  cg2d: iter=    26 ; resid.=  8.50760751172925E-04
(PID.TID 0000.0001)  cg2d: iter=    27 ; resid.=  6.54705547524999E-04
(PID.TID 0000.0001)  cg2d: iter=    28 ; resid.=  5.30623187397075E-04
(PID.TID 0000.0001)  cg2d: iter=    29 ; resid.=  4.22567123941099E-04
(PID.TID 0000.0001)  cg2d: iter=    30 ; resid.=  3.49729466143101E-04
(PID.TID 0000.0001)  cg2d: iter=    31 ; resid.=  3.04536225026942E-04
(PID.TID 0000.0001)  cg2d: iter=    32 ; resid.=  2.45062883293723E-04
(PID.TID 0000.0001)  cg2d: iter=    33 ; resid.=  2.09702242545001E-04
(PID.TID 0000.0001)  cg2d: iter=    34 ; resid.=  1.74718925647009E-04
(PID.TID 0000.0001)  cg2d: iter=    35 ; resid.=  1.39252151518227E-04
(PID.TID 0000.0001)  cg2d: iter=    36 ; resid.=  1.22447431214582E-04
(PID.TID 0000.0001)  cg2d: iter=    37 ; resid.=  1.11324651108860E-04
(PID.TID 0000.0001)  cg2d: iter=    38 ; resid.=  1.04347044235566E-04
(PID.TID 0000.0001)  cg2d: iter=    39 ; resid.=  9.17754515041094E-05
(PID.TID 0000.0001)  cg2d: iter=    40 ; resid.=  7.46310674704457E-05
(PID.TID 0000.0001)  cg2d: iter=    41 ; resid.=  5.35996461127835E-05
(PID.TID 0000.0001)  cg2d: iter=    42 ; resid.=  4.49510277897252E-05
(PID.TID 0000.0001)  cg2d: iter=    43 ; resid.=  4.21280251093843E-05
(PID.TID 0000.0001)  cg2d: iter=    44 ; resid.=  3.60705110223063E-05
(PID.TID 0000.0001)  cg2d: iter=    45 ; resid.=  2.80916694186437E-05
(PID.TID 0000.0001)  cg2d: iter=    46 ; resid.=  2.24952391788496E-05
(PID.TID 0000.0001)  cg2d: iter=    47 ; resid.=  1.81498513910565E-05
(PID.TID 0000.0001)  cg2d: iter=    48 ; resid.=  1.49889542896215E-05
(PID.TID 0000.0001)  cg2d: iter=    49 ; resid.=  1.30626420920623E-05
(PID.TID 0000.0001)  cg2d: iter=    50 ; resid.=  1.12966460350129E-05
(PID.TID 0000.0001)  cg2d: iter=    51 ; resid.=  1.03456532725257E-05
(PID.TID 0000.0001)  cg2d: iter=    52 ; resid.=  8.57020820216754E-06
(PID.TID 0000.0001)  cg2d: iter=    53 ; resid.=  7.28497609736606E-06
(PID.TID 0000.0001)  cg2d: iter=    54 ; resid.=  5.83641794978801E-06
(PID.TID 0000.0001)  cg2d: iter=    55 ; resid.=  4.77916018119361E-06
(PID.TID 0000.0001)  cg2d: iter=    56 ; resid.=  3.85709877074335E-06
(PID.TID 0000.0001)  cg2d: iter=    57 ; resid.=  3.10587575521278E-06
(PID.TID 0000.0001)  cg2d: iter=    58 ; resid.=  2.52910767968091E-06
(PID.TID 0000.0001)  cg2d: iter=    59 ; resid.=  1.82790242346389E-06
(PID.TID 0000.0001)  cg2d: iter=    60 ; resid.=  1.26404590609069E-06
(PID.TID 0000.0001)  cg2d: iter=    61 ; resid.=  9.86170364696691E-07
(PID.TID 0000.0001)  cg2d: iter=    62 ; resid.=  8.70068415213315E-07
(PID.TID 0000.0001)  cg2d: iter=    63 ; resid.=  7.78450414487320E-07
(PID.TID 0000.0001)  cg2d: iter=    64 ; resid.=  6.60144405667079E-07
(PID.TID 0000.0001)  cg2d: iter=    65 ; resid.=  5.40485311885517E-07
(PID.TID 0000.0001)  cg2d: iter=    66 ; resid.=  4.62551565733044E-07
(PID.TID 0000.0001)  cg2d: iter=    67 ; resid.=  3.78778762792756E-07
(PID.TID 0000.0001)  cg2d: iter=    68 ; resid.=  3.14210450959740E-07
(PID.TID 0000.0001)  cg2d: iter=    69 ; resid.=  2.63360351313869E-07
(PID.TID 0000.0001)  cg2d: iter=    70 ; resid.=  2.33545823867527E-07
(PID.TID 0000.0001)  cg2d: iter=    71 ; resid.=  1.95798153375963E-07
(PID.TID 0000.0001)  cg2d: iter=    72 ; resid.=  1.62258628757222E-07
(PID.TID 0000.0001)  cg2d: iter=    73 ; resid.=  1.39889090329579E-07
(PID.TID 0000.0001)  cg2d: iter=    74 ; resid.=  1.23364464723418E-07
(PID.TID 0000.0001)  cg2d: iter=    75 ; resid.=  9.81455453146686E-08
(PID.TID 0000.0001)  cg2d: iter=    76 ; resid.=  7.78610188621826E-08
(PID.TID 0000.0001)  cg2d: iter=    77 ; resid.=  5.82220199263004E-08
(PID.TID 0000.0001)  cg2d: iter=    78 ; resid.=  4.22052191609464E-08
(PID.TID 0000.0001)  cg2d: iter=    79 ; resid.=  3.22681405405516E-08
(PID.TID 0000.0001)  cg2d: iter=    80 ; resid.=  2.51829124858102E-08
(PID.TID 0000.0001)  cg2d: iter=    81 ; resid.=  2.11261087530048E-08
(PID.TID 0000.0001)  cg2d: iter=    82 ; resid.=  1.68677362820259E-08
(PID.TID 0000.0001)  cg2d: iter=    83 ; resid.=  1.27442882506116E-08
(PID.TID 0000.0001)  cg2d: iter=    84 ; resid.=  9.54721976526981E-09
(PID.TID 0000.0001)  cg2d: iter=    85 ; resid.=  6.15474922460347E-09
(PID.TID 0000.0001)  cg2d: iter=    86 ; resid.=  4.23346903681457E-09
(PID.TID 0000.0001)  cg2d: iter=    87 ; resid.=  3.09498039947122E-09
(PID.TID 0000.0001)  cg2d: iter=    88 ; resid.=  2.37195077690115E-09
(PID.TID 0000.0001)  cg2d: iter=    89 ; resid.=  1.92040801490295E-09
(PID.TID 0000.0001)  cg2d: iter=    90 ; resid.=  1.62755614029481E-09
(PID.TID 0000.0001)  cg2d: iter=    91 ; resid.=  1.39207017430828E-09
(PID.TID 0000.0001)  cg2d: iter=    92 ; resid.=  1.13162118922810E-09
(PID.TID 0000.0001)  cg2d: iter=    93 ; resid.=  8.87039712603094E-10
(PID.TID 0000.0001)  cg2d: iter=    94 ; resid.=  7.01320133203241E-10
(PID.TID 0000.0001)  cg2d: iter=    95 ; resid.=  5.17384731953364E-10
(PID.TID 0000.0001)  cg2d: iter=    96 ; resid.=  4.16096646318986E-10
(PID.TID 0000.0001)  cg2d: iter=    97 ; resid.=  3.31614004614718E-10
(PID.TID 0000.0001)  cg2d: iter=    98 ; resid.=  2.62944286903035E-10
(PID.TID 0000.0001)  cg2d: iter=    99 ; resid.=  2.12850168906113E-10
(PID.TID 0000.0001)  cg2d: iter=   100 ; resid.=  1.88079845042995E-10
(PID.TID 0000.0001)  cg2d: iter=   101 ; resid.=  1.69594853660129E-10
(PID.TID 0000.0001)  cg2d: iter=   102 ; resid.=  1.45098109966619E-10
(PID.TID 0000.0001)  cg2d: iter=   103 ; resid.=  1.16521071607283E-10
(PID.TID 0000.0001)  cg2d: iter=   104 ; resid.=  8.60922803611152E-11
(PID.TID 0000.0001)  cg2d: iter=   105 ; resid.=  6.65533259466619E-11
(PID.TID 0000.0001)  cg2d: iter=   106 ; resid.=  5.91408539690412E-11
(PID.TID 0000.0001)  cg2d: iter=   107 ; resid.=  4.74787315737478E-11
(PID.TID 0000.0001)  cg2d: iter=   108 ; resid.=  3.66039569801695E-11
(PID.TID 0000.0001)  cg2d: iter=   109 ; resid.=  2.78074861836740E-11
(PID.TID 0000.0001)  cg2d: iter=   110 ; resid.=  1.92724293575459E-11
(PID.TID 0000.0001)  cg2d: iter=   111 ; resid.=  1.49957841794851E-11
(PID.TID 0000.0001)  cg2d: iter=   112 ; resid.=  1.16167535644272E-11
(PID.TID 0000.0001)  cg2d: iter=   113 ; resid.=  8.71407668770816E-12
(PID.TID 0000.0001)  cg2d: iter=   114 ; resid.=  6.88676754848328E-12
(PID.TID 0000.0001)  cg2d: iter=   115 ; resid.=  5.10376175363063E-12
(PID.TID 0000.0001)  cg2d: iter=   116 ; resid.=  3.86035359544285E-12
(PID.TID 0000.0001)  cg2d: iter=   117 ; resid.=  3.36075478180407E-12
(PID.TID 0000.0001)  cg2d: iter=   118 ; resid.=  2.64867085959119E-12
(PID.TID 0000.0001)  cg2d: iter=   119 ; resid.=  2.03699517188611E-12
(PID.TID 0000.0001)  cg2d: iter=   120 ; resid.=  1.54683925042314E-12
(PID.TID 0000.0001)  cg2d: iter=   121 ; resid.=  1.19412613957970E-12
(PID.TID 0000.0001)  cg2d: iter=   122 ; resid.=  9.27776405255122E-13
(PID.TID 0000.0001)  cg2d: iter=   123 ; resid.=  6.79825305204043E-13
(PID.TID 0000.0001)  cg2d: iter=   124 ; resid.=  5.31347549517432E-13
(PID.TID 0000.0001)  cg2d: iter=   125 ; resid.=  4.04942277524789E-13
(PID.TID 0000.0001)  cg2d: iter=   126 ; resid.=  2.93660367841529E-13
(PID.TID 0000.0001)  cg2d: iter=   127 ; resid.=  1.99818678278301E-13
(PID.TID 0000.0001)  cg2d: iter=   128 ; resid.=  1.40695657132280E-13
(PID.TID 0000.0001)  cg2d: iter=   129 ; resid.=  1.04538354698031E-13
(PID.TID 0000.0001)  cg2d: iter=   130 ; resid.=  7.45541819200756E-14
DEBUG_STATS_RL:    cg2d_x (SOLVE_FOR_PRESSURE)  min= -1.85324082212275E+01
DEBUG_STATS_RL:    cg2d_x (SOLVE_FOR_PRESSURE)  max=  9.18336701760622E+00
DEBUG_STATS_RL:    cg2d_x (SOLVE_FOR_PRESSURE) mean= -1.84397321875298E+00
DEBUG_STATS_RL:    cg2d_x (SOLVE_FOR_PRESSURE) S.D.=  7.12248354533590E+00
(PID.TID 0000.0001)      cg2d_init_res =   2.48915969570454E-01
(PID.TID 0000.0001)      cg2d_iters(min,last) =      -1     130
(PID.TID 0000.0001)      cg2d_last_res =   7.45541819200756E-14
(PID.TID 0000.0001) // =======================================================
(PID.TID 0000.0001) // Begin MONITOR dynamic field statistics
(PID.TID 0000.0001) // =======================================================
(PID.TID 0000.0001) %MON time_tsnumber                =                    74
(PID.TID 0000.0001) %MON time_secondsf                =   6.3936000000000E+06
(PID.TID 0000.0001) %MON dynstat_eta_max              =   9.3612303951126E-01
(PID.TID 0000.0001) %MON dynstat_eta_min              =  -1.8891343752526E+00
(PID.TID 0000.0001) %MON dynstat_eta_mean             =  -5.2341694460647E-03
(PID.TID 0000.0001) %MON dynstat_eta_sd               =   6.2740017050627E-01
(PID.TID 0000.0001) %MON dynstat_eta_del2             =   2.4368526851573E-03
(PID.TID 0000.0001) %MON dynstat_uvel_max             =   1.4514412513176E-01
(PID.TID 0000.0001) %MON dynstat_uvel_min             =  -1.2165359217842E-01
(PID.TID 0000.0001) %MON dynstat_uvel_mean            =   2.3680658881165E-03
(PID.TID 0000.0001) %MON dynstat_uvel_sd              =   1.3469928678767E-02
(PID.TID 0000.0001) %MON dynstat_uvel_del2            =   8.1919828611332E-05
(PID.TID 0000.0001) %MON dynstat_vvel_max             =   1.4035193001245E-01
(PID.TID 0000.0001) %MON dynstat_vvel_min             =  -7.9329372826670E-02
(PID.TID 0000.0001) %MON dynstat_vvel_mean            =   2.5806765240007E-05
(PID.TID 0000.0001) %MON dynstat_vvel_sd              =   8.1100228767802E-03
(PID.TID 0000.0001) %MON dynstat_vvel_del2            =   7.2003044682954E-05
(PID.TID 0000.0001) %MON dynstat_wvel_max             =   1.6700454105894E-04
(PID.TID 0000.0001) %MON dynstat_wvel_min             =  -7.5172294164608E-05
(PID.TID 0000.0001) %MON dynstat_wvel_mean            =  -8.6862126958959E-23
(PID.TID 0000.0001) %MON dynstat_wvel_sd              =   1.0239445501518E-05
(PID.TID 0000.0001) %MON dynstat_wvel_del2            =   1.0173153027364E-07
(PID.TID 0000.0001) %MON dynstat_theta_max            =   3.0878656888396E+01
(PID.TID 0000.0001) %MON dynstat_theta_min            =  -1.9496082202220E+00
(PID.TID 0000.0001) %MON dynstat_theta_mean           =   3.6240076471329E+00
(PID.TID 0000.0001) %MON dynstat_theta_sd             =   4.4266086422628E+00
(PID.TID 0000.0001) %MON dynstat_theta_del2           =   4.8559607417271E-03
(PID.TID 0000.0001) %MON dynstat_salt_max             =   3.7464519639268E+01
(PID.TID 0000.0001) %MON dynstat_salt_min             =   2.9899465578394E+01
(PID.TID 0000.0001) %MON dynstat_salt_mean            =   3.4718001065977E+01
(PID.TID 0000.0001) %MON dynstat_salt_sd              =   2.9653919478473E-01
(PID.TID 0000.0001) %MON dynstat_salt_del2            =   9.8838929335775E-04
(PID.TID 0000.0001) %MON dynstat_sst_max              =   3.0878656888396E+01
(PID.TID 0000.0001) %MON dynstat_sst_min              =  -1.9496082202220E+00
(PID.TID 0000.0001) %MON dynstat_sst_mean             =   1.9046456013763E+01
(PID.TID 0000.0001) %MON dynstat_sst_sd               =   9.1347073079326E+00
(PID.TID 0000.0001) %MON dynstat_sst_del2             =   2.8497680374990E-02
(PID.TID 0000.0001) %MON dynstat_sss_max              =   3.7456662759335E+01
(PID.TID 0000.0001) %MON dynstat_sss_min              =   2.9899465578394E+01
(PID.TID 0000.0001) %MON dynstat_sss_mean             =   3.4837437786116E+01
(PID.TID 0000.0001) %MON dynstat_sss_sd               =   9.8472730004519E-01
(PID.TID 0000.0001) %MON dynstat_sss_del2             =   8.0992290617756E-03
(PID.TID 0000.0001) %MON forcing_qnet_max             =   2.8010399373372E+02
(PID.TID 0000.0001) %MON forcing_qnet_min             =  -1.6445414937337E+02
(PID.TID 0000.0001) %MON forcing_qnet_mean            =  -7.7117449893978E+00
(PID.TID 0000.0001) %MON forcing_qnet_sd              =   4.7682028835488E+01
(PID.TID 0000.0001) %MON forcing_qnet_del2            =   8.5372818761303E-01
(PID.TID 0000.0001) %MON forcing_qsw_max              =   0.0000000000000E+00
(PID.TID 0000.0001) %MON forcing_qsw_min              =   0.0000000000000E+00
(PID.TID 0000.0001) %MON forcing_qsw_mean             =   0.0000000000000E+00
(PID.TID 0000.0001) %MON forcing_qsw_sd               =   0.0000000000000E+00
(PID.TID 0000.0001) %MON forcing_qsw_del2             =   0.0000000000000E+00
(PID.TID 0000.0001) %MON forcing_empmr_max            =   6.9120334463454E-05
(PID.TID 0000.0001) %MON forcing_empmr_min            =  -8.2466058396828E-05
(PID.TID 0000.0001) %MON forcing_empmr_mean           =   5.7689091542740E-07
(PID.TID 0000.0001) %MON forcing_empmr_sd             =   2.6334295639993E-05
(PID.TID 0000.0001) %MON forcing_empmr_del2           =   3.6406482698784E-07
(PID.TID 0000.0001) %MON forcing_fu_max               =   3.5366856455803E-01
(PID.TID 0000.0001) %MON forcing_fu_min               =  -3.7581218282382E-01
(PID.TID 0000.0001) %MON forcing_fu_mean              =   2.0268330121471E-02
(PID.TID 0000.0001) %MON forcing_fu_sd                =   1.0099442893771E-01
(PID.TID 0000.0001) %MON forcing_fu_del2              =   8.2292198802484E-04
(PID.TID 0000.0001) %MON forcing_fv_max               =   1.7565003186464E-01
(PID.TID 0000.0001) %MON forcing_fv_min               =  -1.9033604760965E-01
(PID.TID 0000.0001) %MON forcing_fv_mean              =  -7.5087187401056E-03
(PID.TID 0000.0001) %MON forcing_fv_sd                =   4.2349967885931E-02
(PID.TID 0000.0001) %MON forcing_fv_del2              =   4.9608724441070E-04
(PID.TID 0000.0001) %MON trAdv_CFL_u_max              =   4.8557316020963E-02
(PID.TID 0000.0001) %MON trAdv_CFL_v_max              =   2.7441708009022E-02
(PID.TID 0000.0001) %MON trAdv_CFL_w_max              =   3.6354521324949E-02
(PID.TID 0000.0001) %MON advcfl_uvel_max              =   4.7975303176146E-02
(PID.TID 0000.0001) %MON advcfl_vvel_max              =   2.7268129027087E-02
(PID.TID 0000.0001) %MON advcfl_wvel_max              =   3.9532033828747E-02
(PID.TID 0000.0001) %MON advcfl_W_hf_max              =   4.2438801022037E-02
(PID.TID 0000.0001) %MON pe_b_mean                    =   5.0373333378830E-04
(PID.TID 0000.0001) %MON ke_max                       =   1.1983196958816E-02
(PID.TID 0000.0001) %MON ke_mean                      =   1.1450659756817E-04
(PID.TID 0000.0001) %MON ke_vol                       =   1.3226782436723E+18
(PID.TID 0000.0001) %MON vort_r_min                   =  -3.1308634946888E-07
(PID.TID 0000.0001) %MON vort_r_max                   =   4.0407329816188E-07
(PID.TID 0000.0001) %MON vort_a_mean                  =  -2.5274807044875E-05
(PID.TID 0000.0001) %MON vort_a_sd                    =   7.3604665722327E-05
(PID.TID 0000.0001) %MON vort_p_mean                  =  -3.1845655355235E-05
(PID.TID 0000.0001) %MON vort_p_sd                    =   1.3162492908492E-04
(PID.TID 0000.0001) %MON surfExpan_theta_mean         =  -2.3183239161621E-08
(PID.TID 0000.0001) %MON surfExpan_salt_mean          =   6.1671388736313E-08
(PID.TID 0000.0001) // =======================================================
(PID.TID 0000.0001) // End MONITOR dynamic field statistics
(PID.TID 0000.0001) // =======================================================
 EXTERNAL_FIELDS_LOAD,        74 : iP,iLd,i0,i1=    2    3    2    3 ; Wght=  0.0333333333  0.9666666667
 EXTERNAL_FIELDS_LOAD: (fu0,1),fu,fv= -1.4435E-02 -2.7199E-02 -2.6773E-02 -1.1467E-03
 EXTERNAL_FIELDS_LOAD: SST,SSS,Q,E-P= -1.9550E-01  3.4574E+01  2.1623E+02  9.0573E-06
DEBUG_STATS_RL:          Uvel (THERMODYNAMICS)  min= -1.21653592178421E-01
DEBUG_STATS_RL:          Uvel (THERMODYNAMICS)  max=  1.45144125131756E-01
DEBUG_STATS_RL:          Uvel (THERMODYNAMICS) mean=  6.12777858515925E-03
DEBUG_STATS_RL:          Uvel (THERMODYNAMICS) S.D.=  2.20092258733889E-02
DEBUG_STATS_RL:          Vvel (THERMODYNAMICS)  min= -7.93293728266701E-02
DEBUG_STATS_RL:          Vvel (THERMODYNAMICS)  max=  1.40351930012452E-01
DEBUG_STATS_RL:          Vvel (THERMODYNAMICS) mean=  8.15454721864488E-04
DEBUG_STATS_RL:          Vvel (THERMODYNAMICS) S.D.=  1.32645897071700E-02
DEBUG_STATS_RL:          Wvel (THERMODYNAMICS)  min= -7.51722941646076E-05
DEBUG_STATS_RL:          Wvel (THERMODYNAMICS)  max=  1.67004541058941E-04
DEBUG_STATS_RL:          Wvel (THERMODYNAMICS) mean= -3.58956752112339E-08
DEBUG_STATS_RL:          Wvel (THERMODYNAMICS) S.D.=  9.11974244802432E-06
DEBUG_STATS_RL:         Theta (THERMODYNAMICS)  min= -1.94879242449041E+00
DEBUG_STATS_RL:         Theta (THERMODYNAMICS)  max=  3.09053207373430E+01
DEBUG_STATS_RL:         Theta (THERMODYNAMICS) mean=  3.22129821553843E+00
DEBUG_STATS_RL:         Theta (THERMODYNAMICS) S.D.=  5.88443198556431E+00
DEBUG_STATS_RL:          Salt (THERMODYNAMICS)  min= -2.77555756156289E-17
DEBUG_STATS_RL:          Salt (THERMODYNAMICS)  max=  3.74640321731137E+01
DEBUG_STATS_RL:          Salt (THERMODYNAMICS) mean=  1.88447257912961E+01
DEBUG_STATS_RL:          Salt (THERMODYNAMICS) S.D.=  1.73002734771109E+01
DEBUG_STATS_RL:         GtNm1 (THERMODYNAMICS)  min= -4.63363697170067E-06
DEBUG_STATS_RL:         GtNm1 (THERMODYNAMICS)  max=  2.38944282338444E-06
DEBUG_STATS_RL:         GtNm1 (THERMODYNAMICS) mean=  2.56825510815629E-09
DEBUG_STATS_RL:         GtNm1 (THERMODYNAMICS) S.D.=  1.49030010468248E-07
DEBUG_STATS_RL:         GsNm1 (THERMODYNAMICS)  min= -4.53851555132638E-07
DEBUG_STATS_RL:         GsNm1 (THERMODYNAMICS)  max=  2.97058837969593E-07
DEBUG_STATS_RL:         GsNm1 (THERMODYNAMICS) mean= -9.53686702690739E-12
DEBUG_STATS_RL:         GsNm1 (THERMODYNAMICS) S.D.=  1.38364288885912E-08
DEBUG_STATS_RL:                EtaN (DYNAMICS)  min= -1.88913437525258E+00
DEBUG_STATS_RL:                EtaN (DYNAMICS)  max=  9.36123039511263E-01
DEBUG_STATS_RL:                EtaN (DYNAMICS) mean= -1.87968727701630E-01
DEBUG_STATS_RL:                EtaN (DYNAMICS) S.D.=  7.26043174855852E-01
DEBUG_STATS_RL:                Uvel (DYNAMICS)  min= -1.21653592178421E-01
DEBUG_STATS_RL:                Uvel (DYNAMICS)  max=  1.45144125131756E-01
DEBUG_STATS_RL:                Uvel (DYNAMICS) mean=  6.12777858515925E-03
DEBUG_STATS_RL:                Uvel (DYNAMICS) S.D.=  2.20092258733889E-02
DEBUG_STATS_RL:                Vvel (DYNAMICS)  min= -7.93293728266701E-02
DEBUG_STATS_RL:                Vvel (DYNAMICS)  max=  1.40351930012452E-01
DEBUG_STATS_RL:                Vvel (DYNAMICS) mean=  8.15454721864488E-04
DEBUG_STATS_RL:                Vvel (DYNAMICS) S.D.=  1.32645897071700E-02
DEBUG_STATS_RL:                Wvel (DYNAMICS)  min= -7.51722941646076E-05
DEBUG_STATS_RL:                Wvel (DYNAMICS)  max=  1.67004541058941E-04
DEBUG_STATS_RL:                Wvel (DYNAMICS) mean= -3.58956752112339E-08
DEBUG_STATS_RL:                Wvel (DYNAMICS) S.D.=  9.11974244802432E-06
DEBUG_STATS_RL:               Theta (DYNAMICS)  min= -1.94879242449041E+00
DEBUG_STATS_RL:               Theta (DYNAMICS)  max=  3.09053207373430E+01
DEBUG_STATS_RL:               Theta (DYNAMICS) mean=  3.22129821553843E+00
DEBUG_STATS_RL:               Theta (DYNAMICS) S.D.=  5.88443198556431E+00
DEBUG_STATS_RL:                Salt (DYNAMICS)  min= -2.77555756156289E-17
DEBUG_STATS_RL:                Salt (DYNAMICS)  max=  3.74640321731137E+01
DEBUG_STATS_RL:                Salt (DYNAMICS) mean=  1.88447257912961E+01
DEBUG_STATS_RL:                Salt (DYNAMICS) S.D.=  1.73002734771109E+01
DEBUG_STATS_RL:                  Gu (DYNAMICS)  min= -1.20949598904006E-01
DEBUG_STATS_RL:                  Gu (DYNAMICS)  max=  1.41729894657291E-01
DEBUG_STATS_RL:                  Gu (DYNAMICS) mean=  6.08163418457186E-03
DEBUG_STATS_RL:                  Gu (DYNAMICS) S.D.=  2.24901889027596E-02
DEBUG_STATS_RL:                  Gv (DYNAMICS)  min= -8.35293144700130E-02
DEBUG_STATS_RL:                  Gv (DYNAMICS)  max=  1.40339487086732E-01
DEBUG_STATS_RL:                  Gv (DYNAMICS) mean=  3.45078396766745E-03
DEBUG_STATS_RL:                  Gv (DYNAMICS) S.D.=  1.46424957100085E-02
DEBUG_STATS_RL:               GuNm1 (DYNAMICS)  min= -9.99752846468636E-06
DEBUG_STATS_RL:               GuNm1 (DYNAMICS)  max=  9.23587526979711E-06
DEBUG_STATS_RL:               GuNm1 (DYNAMICS) mean=  7.29911401177676E-09
DEBUG_STATS_RL:               GuNm1 (DYNAMICS) S.D.=  1.21636109656536E-06
DEBUG_STATS_RL:               GvNm1 (DYNAMICS)  min= -9.87962549577420E-06
DEBUG_STATS_RL:               GvNm1 (DYNAMICS)  max=  1.56313007750627E-05
DEBUG_STATS_RL:               GvNm1 (DYNAMICS) mean=  7.35657303349716E-07
DEBUG_STATS_RL:               GvNm1 (DYNAMICS) S.D.=  2.62008892487623E-06
DEBUG_STATS_RL:               GtNm1 (DYNAMICS)  min= -4.63363697170067E-06
DEBUG_STATS_RL:               GtNm1 (DYNAMICS)  max=  2.38944282338444E-06
DEBUG_STATS_RL:               GtNm1 (DYNAMICS) mean=  2.56825510815629E-09
DEBUG_STATS_RL:               GtNm1 (DYNAMICS) S.D.=  1.49030010468248E-07
DEBUG_STATS_RL:               GsNm1 (DYNAMICS)  min= -4.53851555132638E-07
DEBUG_STATS_RL:               GsNm1 (DYNAMICS)  max=  2.97058837969593E-07
DEBUG_STATS_RL:               GsNm1 (DYNAMICS) mean= -9.53686702690739E-12
DEBUG_STATS_RL:               GsNm1 (DYNAMICS) S.D.=  1.38364288885912E-08
DEBUG_STATS_RL:    cg2d_b (SOLVE_FOR_PRESSURE)  min= -2.45669561837799E+04
DEBUG_STATS_RL:    cg2d_b (SOLVE_FOR_PRESSURE)  max=  2.46729113220404E+04
DEBUG_STATS_RL:    cg2d_b (SOLVE_FOR_PRESSURE) mean=  5.06167915594355E+00
DEBUG_STATS_RL:    cg2d_b (SOLVE_FOR_PRESSURE) S.D.=  3.90568269925978E+03
 cg2d: Sum(rhs),rhsMax =   4.74925196020171E-01  1.62058287551877E+00
(PID.TID 0000.0001)  cg2d: iter=     1 ; resid.=  6.84221089550828E-02
(PID.TID 0000.0001)  cg2d: iter=     2 ; resid.=  4.17090785840436E-02
(PID.TID 0000.0001)  cg2d: iter=     3 ; resid.=  4.20038243532498E-02
(PID.TID 0000.0001)  cg2d: iter=     4 ; resid.=  4.65464436657400E-02
(PID.TID 0000.0001)  cg2d: iter=     5 ; resid.=  4.66880018058896E-02
(PID.TID 0000.0001)  cg2d: iter=     6 ; resid.=  3.80174549167501E-02
(PID.TID 0000.0001)  cg2d: iter=     7 ; resid.=  2.98202988633965E-02
(PID.TID 0000.0001)  cg2d: iter=     8 ; resid.=  2.20533961601153E-02
(PID.TID 0000.0001)  cg2d: iter=     9 ; resid.=  1.67461542102801E-02
(PID.TID 0000.0001)  cg2d: iter=    10 ; resid.=  1.31185218460214E-02
(PID.TID 0000.0001)  cg2d: iter=    11 ; resid.=  1.03157845561223E-02
(PID.TID 0000.0001)  cg2d: iter=    12 ; resid.=  9.00904067622143E-03
(PID.TID 0000.0001)  cg2d: iter=    13 ; resid.=  7.58846565002764E-03
(PID.TID 0000.0001)  cg2d: iter=    14 ; resid.=  6.50122255133192E-03
(PID.TID 0000.0001)  cg2d: iter=    15 ; resid.=  5.67021959957873E-03
(PID.TID 0000.0001)  cg2d: iter=    16 ; resid.=  4.94735084164617E-03
(PID.TID 0000.0001)  cg2d: iter=    17 ; resid.=  4.33902419470787E-03
(PID.TID 0000.0001)  cg2d: iter=    18 ; resid.=  3.85161956696566E-03
(PID.TID 0000.0001)  cg2d: iter=    19 ; resid.=  3.09121724798412E-03
(PID.TID 0000.0001)  cg2d: iter=    20 ; resid.=  2.41800396026166E-03
(PID.TID 0000.0001)  cg2d: iter=    21 ; resid.=  1.96273500748021E-03
(PID.TID 0000.0001)  cg2d: iter=    22 ; resid.=  1.61533640020972E-03
(PID.TID 0000.0001)  cg2d: iter=    23 ; resid.=  1.45286061330777E-03
(PID.TID 0000.0001)  cg2d: iter=    24 ; resid.=  1.24891231771795E-03
(PID.TID 0000.0001)  cg2d: iter=    25 ; resid.=  1.03423951004532E-03
(PID.TID 0000.0001)  cg2d: iter=    26 ; resid.=  8.45425523224836E-04
(PID.TID 0000.0001)  cg2d: iter=    27 ; resid.=  6.43813727182416E-04
(PID.TID 0000.0001)  cg2d: iter=    28 ; resid.=  5.22028632577010E-04
(PID.TID 0000.0001)  cg2d: iter=    29 ; resid.=  4.13212508490500E-04
(PID.TID 0000.0001)  cg2d: iter=    30 ; resid.=  3.42875189931148E-04
(PID.TID 0000.0001)  cg2d: iter=    31 ; resid.=  2.97041865019605E-04
(PID.TID 0000.0001)  cg2d: iter=    32 ; resid.=  2.37020939892451E-04
(PID.TID 0000.0001)  cg2d: iter=    33 ; resid.=  2.03860783572438E-04
(PID.TID 0000.0001)  cg2d: iter=    34 ; resid.=  1.68887074417904E-04
(PID.TID 0000.0001)  cg2d: iter=    35 ; resid.=  1.35147336773419E-04
(PID.TID 0000.0001)  cg2d: iter=    36 ; resid.=  1.18401268099252E-04
(PID.TID 0000.0001)  cg2d: iter=    37 ; resid.=  1.08129016860901E-04
(PID.TID 0000.0001)  cg2d: iter=    38 ; resid.=  1.02030081345186E-04
(PID.TID 0000.0001)  cg2d: iter=    39 ; resid.=  9.00135915760026E-05
(PID.TID 0000.0001)  cg2d: iter=    40 ; resid.=  7.35343725708343E-05
(PID.TID 0000.0001)  cg2d: iter=    41 ; resid.=  5.27944562650971E-05
(PID.TID 0000.0001)  cg2d: iter=    42 ; resid.=  4.40965007413360E-05
(PID.TID 0000.0001)  cg2d: iter=    43 ; resid.=  4.04971790953716E-05
(PID.TID 0000.0001)  cg2d: iter=    44 ; resid.=  3.48408081017168E-05
(PID.TID 0000.0001)  cg2d: iter=    45 ; resid.=  2.74417663316203E-05
(PID.TID 0000.0001)  cg2d: iter=    46 ; resid.=  2.19721248804426E-05
(PID.TID 0000.0001)  cg2d: iter=    47 ; resid.=  1.76859609956097E-05
(PID.TID 0000.0001)  cg2d: iter=    48 ; resid.=  1.45295244156057E-05
(PID.TID 0000.0001)  cg2d: iter=    49 ; resid.=  1.25456669004031E-05
(PID.TID 0000.0001)  cg2d: iter=    50 ; resid.=  1.08392806560158E-05
(PID.TID 0000.0001)  cg2d: iter=    51 ; resid.=  1.00106413307554E-05
(PID.TID 0000.0001)  cg2d: iter=    52 ; resid.=  8.41509263872505E-06
(PID.TID 0000.0001)  cg2d: iter=    53 ; resid.=  7.14207121795880E-06
(PID.TID 0000.0001)  cg2d: iter=    54 ; resid.=  5.65646273701211E-06
(PID.TID 0000.0001)  cg2d: iter=    55 ; resid.=  4.58461560728646E-06
(PID.TID 0000.0001)  cg2d: iter=    56 ; resid.=  3.67208014506722E-06
(PID.TID 0000.0001)  cg2d: iter=    57 ; resid.=  2.96427149540270E-06
(PID.TID 0000.0001)  cg2d: iter=    58 ; resid.=  2.41406851481906E-06
(PID.TID 0000.0001)  cg2d: iter=    59 ; resid.=  1.74917959310058E-06
(PID.TID 0000.0001)  cg2d: iter=    60 ; resid.=  1.21493823961312E-06
(PID.TID 0000.0001)  cg2d: iter=    61 ; resid.=  9.46857280057521E-07
(PID.TID 0000.0001)  cg2d: iter=    62 ; resid.=  8.28459402144174E-07
(PID.TID 0000.0001)  cg2d: iter=    63 ; resid.=  7.42612101535736E-07
(PID.TID 0000.0001)  cg2d: iter=    64 ; resid.=  6.30320597121921E-07
(PID.TID 0000.0001)  cg2d: iter=    65 ; resid.=  5.16656721862148E-07
(PID.TID 0000.0001)  cg2d: iter=    66 ; resid.=  4.36676483715919E-07
(PID.TID 0000.0001)  cg2d: iter=    67 ; resid.=  3.58738468615634E-07
(PID.TID 0000.0001)  cg2d: iter=    68 ; resid.=  2.95088086058938E-07
(PID.TID 0000.0001)  cg2d: iter=    69 ; resid.=  2.42747143023961E-07
(PID.TID 0000.0001)  cg2d: iter=    70 ; resid.=  2.14086043957720E-07
(PID.TID 0000.0001)  cg2d: iter=    71 ; resid.=  1.81875928331243E-07
(PID.TID 0000.0001)  cg2d: iter=    72 ; resid.=  1.53972517578715E-07
(PID.TID 0000.0001)  cg2d: iter=    73 ; resid.=  1.33737678510830E-07
(PID.TID 0000.0001)  cg2d: iter=    74 ; resid.=  1.18971534377118E-07
(PID.TID 0000.0001)  cg2d: iter=    75 ; resid.=  9.40269811158584E-08
(PID.TID 0000.0001)  cg2d: iter=    76 ; resid.=  7.52641002488432E-08
(PID.TID 0000.0001)  cg2d: iter=    77 ; resid.=  5.62363921117024E-08
(PID.TID 0000.0001)  cg2d: iter=    78 ; resid.=  4.07452142054989E-08
(PID.TID 0000.0001)  cg2d: iter=    79 ; resid.=  3.06467789970648E-08
(PID.TID 0000.0001)  cg2d: iter=    80 ; resid.=  2.38008210225810E-08
(PID.TID 0000.0001)  cg2d: iter=    81 ; resid.=  2.02549679350100E-08
(PID.TID 0000.0001)  cg2d: iter=    82 ; resid.=  1.61592929775494E-08
(PID.TID 0000.0001)  cg2d: iter=    83 ; resid.=  1.23141185172588E-08
(PID.TID 0000.0001)  cg2d: iter=    84 ; resid.=  9.24528048546120E-09
(PID.TID 0000.0001)  cg2d: iter=    85 ; resid.=  6.00549235510073E-09
(PID.TID 0000.0001)  cg2d: iter=    86 ; resid.=  4.18567945179009E-09
(PID.TID 0000.0001)  cg2d: iter=    87 ; resid.=  3.05064100267246E-09
(PID.TID 0000.0001)  cg2d: iter=    88 ; resid.=  2.32123811082945E-09
(PID.TID 0000.0001)  cg2d: iter=    89 ; resid.=  1.89140665154013E-09
(PID.TID 0000.0001)  cg2d: iter=    90 ; resid.=  1.65183394582291E-09
(PID.TID 0000.0001)  cg2d: iter=    91 ; resid.=  1.46125217843627E-09
(PID.TID 0000.0001)  cg2d: iter=    92 ; resid.=  1.23306302387531E-09
(PID.TID 0000.0001)  cg2d: iter=    93 ; resid.=  9.89211488756938E-10
(PID.TID 0000.0001)  cg2d: iter=    94 ; resid.=  7.97581385766017E-10
(PID.TID 0000.0001)  cg2d: iter=    95 ; resid.=  6.10091225336630E-10
(PID.TID 0000.0001)  cg2d: iter=    96 ; resid.=  5.05862378024871E-10
(PID.TID 0000.0001)  cg2d: iter=    97 ; resid.=  4.09818921168707E-10
(PID.TID 0000.0001)  cg2d: iter=    98 ; resid.=  3.26247229208239E-10
(PID.TID 0000.0001)  cg2d: iter=    99 ; resid.=  2.62095633018299E-10
(PID.TID 0000.0001)  cg2d: iter=   100 ; resid.=  2.30854699188527E-10
(PID.TID 0000.0001)  cg2d: iter=   101 ; resid.=  2.01756194851293E-10
(PID.TID 0000.0001)  cg2d: iter=   102 ; resid.=  1.65866603359024E-10
(PID.TID 0000.0001)  cg2d: iter=   103 ; resid.=  1.28018780156086E-10
(PID.TID 0000.0001)  cg2d: iter=   104 ; resid.=  9.32471303297482E-11
(PID.TID 0000.0001)  cg2d: iter=   105 ; resid.=  7.06592500671602E-11
(PID.TID 0000.0001)  cg2d: iter=   106 ; resid.=  5.97966691079858E-11
(PID.TID 0000.0001)  cg2d: iter=   107 ; resid.=  4.64907909853766E-11
(PID.TID 0000.0001)  cg2d: iter=   108 ; resid.=  3.49653069895795E-11
(PID.TID 0000.0001)  cg2d: iter=   109 ; resid.=  2.59233655925112E-11
(PID.TID 0000.0001)  cg2d: iter=   110 ; resid.=  1.75051019738044E-11
(PID.TID 0000.0001)  cg2d: iter=   111 ; resid.=  1.34550513890800E-11
(PID.TID 0000.0001)  cg2d: iter=   112 ; resid.=  1.03062803236688E-11
(PID.TID 0000.0001)  cg2d: iter=   113 ; resid.=  7.65934243001890E-12
(PID.TID 0000.0001)  cg2d: iter=   114 ; resid.=  5.97535287383468E-12
(PID.TID 0000.0001)  cg2d: iter=   115 ; resid.=  4.36718374071647E-12
(PID.TID 0000.0001)  cg2d: iter=   116 ; resid.=  3.30620305237251E-12
(PID.TID 0000.0001)  cg2d: iter=   117 ; resid.=  2.86038192122559E-12
(PID.TID 0000.0001)  cg2d: iter=   118 ; resid.=  2.27246174131497E-12
(PID.TID 0000.0001)  cg2d: iter=   119 ; resid.=  1.74634629850500E-12
(PID.TID 0000.0001)  cg2d: iter=   120 ; resid.=  1.30651056785833E-12
(PID.TID 0000.0001)  cg2d: iter=   121 ; resid.=  9.96544458365277E-13
(PID.TID 0000.0001)  cg2d: iter=   122 ; resid.=  7.67783973648282E-13
(PID.TID 0000.0001)  cg2d: iter=   123 ; resid.=  5.80834320604888E-13
(PID.TID 0000.0001)  cg2d: iter=   124 ; resid.=  4.73746688329938E-13
(PID.TID 0000.0001)  cg2d: iter=   125 ; resid.=  3.75543260889734E-13
(PID.TID 0000.0001)  cg2d: iter=   126 ; resid.=  2.80983263334384E-13
(PID.TID 0000.0001)  cg2d: iter=   127 ; resid.=  1.91869684469909E-13
(PID.TID 0000.0001)  cg2d: iter=   128 ; resid.=  1.34021638113358E-13
(PID.TID 0000.0001)  cg2d: iter=   129 ; resid.=  9.66643077480880E-14
DEBUG_STATS_RL:    cg2d_x (SOLVE_FOR_PRESSURE)  min= -1.85202752649193E+01
DEBUG_STATS_RL:    cg2d_x (SOLVE_FOR_PRESSURE)  max=  9.10810325902313E+00
DEBUG_STATS_RL:    cg2d_x (SOLVE_FOR_PRESSURE) mean= -1.84121043375443E+00
DEBUG_STATS_RL:    cg2d_x (SOLVE_FOR_PRESSURE) S.D.=  7.10110755485679E+00
(PID.TID 0000.0001)      cg2d_init_res =   2.42913604750351E-01
(PID.TID 0000.0001)      cg2d_iters(min,last) =      -1     129
(PID.TID 0000.0001)      cg2d_last_res =   9.66643077480880E-14
(PID.TID 0000.0001) // =======================================================
(PID.TID 0000.0001) // Begin MONITOR dynamic field statistics
(PID.TID 0000.0001) // =======================================================
(PID.TID 0000.0001) %MON time_tsnumber                =                    75
(PID.TID 0000.0001) %MON time_secondsf                =   6.4800000000000E+06
(PID.TID 0000.0001) %MON dynstat_eta_max              =   9.2845089286677E-01
(PID.TID 0000.0001) %MON dynstat_eta_min              =  -1.8878975805218E+00
(PID.TID 0000.0001) %MON dynstat_eta_mean             =  -5.2812345717318E-03
(PID.TID 0000.0001) %MON dynstat_eta_sd               =   6.2454303498513E-01
(PID.TID 0000.0001) %MON dynstat_eta_del2             =   2.4398958266243E-03
(PID.TID 0000.0001) %MON dynstat_uvel_max             =   1.4259047666672E-01
(PID.TID 0000.0001) %MON dynstat_uvel_min             =  -1.2287208668586E-01
(PID.TID 0000.0001) %MON dynstat_uvel_mean            =   2.4010471701860E-03
(PID.TID 0000.0001) %MON dynstat_uvel_sd              =   1.3553203050709E-02
(PID.TID 0000.0001) %MON dynstat_uvel_del2            =   8.2186410652742E-05
(PID.TID 0000.0001) %MON dynstat_vvel_max             =   1.3853601668073E-01
(PID.TID 0000.0001) %MON dynstat_vvel_min             =  -7.5740933558081E-02
(PID.TID 0000.0001) %MON dynstat_vvel_mean            =   2.3198444391146E-05
(PID.TID 0000.0001) %MON dynstat_vvel_sd              =   8.1000098219733E-03
(PID.TID 0000.0001) %MON dynstat_vvel_del2            =   7.1993142445936E-05
(PID.TID 0000.0001) %MON dynstat_wvel_max             =   1.6845679024150E-04
(PID.TID 0000.0001) %MON dynstat_wvel_min             =  -7.4196497674491E-05
(PID.TID 0000.0001) %MON dynstat_wvel_mean            =   9.0921962309299E-23
(PID.TID 0000.0001) %MON dynstat_wvel_sd              =   1.0234387978115E-05
(PID.TID 0000.0001) %MON dynstat_wvel_del2            =   1.0149216888982E-07
(PID.TID 0000.0001) %MON dynstat_theta_max            =   3.0905320737343E+01
(PID.TID 0000.0001) %MON dynstat_theta_min            =  -1.9487924244904E+00
(PID.TID 0000.0001) %MON dynstat_theta_mean           =   3.6240497618283E+00
(PID.TID 0000.0001) %MON dynstat_theta_sd             =   4.4268185990753E+00
(PID.TID 0000.0001) %MON dynstat_theta_del2           =   4.8530556880582E-03
(PID.TID 0000.0001) %MON dynstat_salt_max             =   3.7464032173114E+01
(PID.TID 0000.0001) %MON dynstat_salt_min             =   2.9902160186660E+01
(PID.TID 0000.0001) %MON dynstat_salt_mean            =   3.4718000409394E+01
(PID.TID 0000.0001) %MON dynstat_salt_sd              =   2.9654395041734E-01
(PID.TID 0000.0001) %MON dynstat_salt_del2            =   9.8884736772741E-04
(PID.TID 0000.0001) %MON dynstat_sst_max              =   3.0905320737343E+01
(PID.TID 0000.0001) %MON dynstat_sst_min              =  -1.9487924244904E+00
(PID.TID 0000.0001) %MON dynstat_sst_mean             =   1.9049175295003E+01
(PID.TID 0000.0001) %MON dynstat_sst_sd               =   9.1414036454431E+00
(PID.TID 0000.0001) %MON dynstat_sst_del2             =   2.8543193186381E-02
(PID.TID 0000.0001) %MON dynstat_sss_max              =   3.7457297433201E+01
(PID.TID 0000.0001) %MON dynstat_sss_min              =   2.9902160186660E+01
(PID.TID 0000.0001) %MON dynstat_sss_mean             =   3.4837423839653E+01
(PID.TID 0000.0001) %MON dynstat_sss_sd               =   9.8501826843598E-01
(PID.TID 0000.0001) %MON dynstat_sss_del2             =   8.1104093973796E-03
(PID.TID 0000.0001) %MON forcing_qnet_max             =   2.7730584208171E+02
(PID.TID 0000.0001) %MON forcing_qnet_min             =  -1.6415487009684E+02
(PID.TID 0000.0001) %MON forcing_qnet_mean            =  -7.4884054897712E+00
(PID.TID 0000.0001) %MON forcing_qnet_sd              =   4.7058066194511E+01
(PID.TID 0000.0001) %MON forcing_qnet_del2            =   8.5296023684548E-01
(PID.TID 0000.0001) %MON forcing_qsw_max              =   0.0000000000000E+00
(PID.TID 0000.0001) %MON forcing_qsw_min              =   0.0000000000000E+00
(PID.TID 0000.0001) %MON forcing_qsw_mean             =   0.0000000000000E+00
(PID.TID 0000.0001) %MON forcing_qsw_sd               =   0.0000000000000E+00
(PID.TID 0000.0001) %MON forcing_qsw_del2             =   0.0000000000000E+00
(PID.TID 0000.0001) %MON forcing_empmr_max            =   6.9114578119904E-05
(PID.TID 0000.0001) %MON forcing_empmr_min            =  -8.2865237989912E-05
(PID.TID 0000.0001) %MON forcing_empmr_mean           =   5.6380098455305E-07
(PID.TID 0000.0001) %MON forcing_empmr_sd             =   2.6310215550859E-05
(PID.TID 0000.0001) %MON forcing_empmr_del2           =   3.6525018640228E-07
(PID.TID 0000.0001) %MON forcing_fu_max               =   3.5560998022556E-01
(PID.TID 0000.0001) %MON forcing_fu_min               =  -3.8218430181344E-01
(PID.TID 0000.0001) %MON forcing_fu_mean              =   2.0362529710929E-02
(PID.TID 0000.0001) %MON forcing_fu_sd                =   1.0155623203239E-01
(PID.TID 0000.0001) %MON forcing_fu_del2              =   8.3547097553751E-04
(PID.TID 0000.0001) %MON forcing_fv_max               =   1.7947518900037E-01
(PID.TID 0000.0001) %MON forcing_fv_min               =  -1.9183383832375E-01
(PID.TID 0000.0001) %MON forcing_fv_mean              =  -7.5191470900751E-03
(PID.TID 0000.0001) %MON forcing_fv_sd                =   4.2508768930942E-02
(PID.TID 0000.0001) %MON forcing_fv_del2              =   5.0164590245370E-04
(PID.TID 0000.0001) %MON trAdv_CFL_u_max              =   4.7985047303346E-02
(PID.TID 0000.0001) %MON trAdv_CFL_v_max              =   2.7157010870050E-02
(PID.TID 0000.0001) %MON trAdv_CFL_w_max              =   3.6997929096135E-02
(PID.TID 0000.0001) %MON advcfl_uvel_max              =   4.7131231401252E-02
(PID.TID 0000.0001) %MON advcfl_vvel_max              =   2.6915326190483E-02
(PID.TID 0000.0001) %MON advcfl_wvel_max              =   3.9875799114700E-02
(PID.TID 0000.0001) %MON advcfl_W_hf_max              =   4.2807843167252E-02
(PID.TID 0000.0001) %MON pe_b_mean                    =   4.9915680103134E-04
(PID.TID 0000.0001) %MON ke_max                       =   1.1922682825506E-02
(PID.TID 0000.0001) %MON ke_mean                      =   1.1552749205972E-04
(PID.TID 0000.0001) %MON ke_vol                       =   1.3226782436723E+18
(PID.TID 0000.0001) %MON vort_r_min                   =  -3.1957623297548E-07
(PID.TID 0000.0001) %MON vort_r_max                   =   4.0239795421168E-07
(PID.TID 0000.0001) %MON vort_a_mean                  =  -2.5274807042618E-05
(PID.TID 0000.0001) %MON vort_a_sd                    =   7.3604671439541E-05
(PID.TID 0000.0001) %MON vort_p_mean                  =  -3.1845655352391E-05
(PID.TID 0000.0001) %MON vort_p_sd                    =   1.3162490604833E-04
(PID.TID 0000.0001) %MON surfExpan_theta_mean         =  -2.0567011688852E-09
(PID.TID 0000.0001) %MON surfExpan_salt_mean          =   5.7551164133382E-08
(PID.TID 0000.0001) // =======================================================
(PID.TID 0000.0001) // End MONITOR dynamic field statistics
(PID.TID 0000.0001) // =======================================================
 EXTERNAL_FIELDS_LOAD,        75 : iP,iLd,i0,i1=    2    3    3    4 ; Wght=  1.0000000000  0.0000000000
 EXTERNAL_FIELDS_LOAD, it=        75 : Reading new data, i0,i1=    3    4 (prev=    2    3 )
(PID.TID 0000.0001)  MDS_READ_FIELD: opening global file: trenberth_taux.bin
(PID.TID 0000.0001)  MDS_READ_FIELD: opening global file: trenberth_taux.bin
(PID.TID 0000.0001)  MDS_READ_FIELD: opening global file: trenberth_tauy.bin
(PID.TID 0000.0001)  MDS_READ_FIELD: opening global file: trenberth_tauy.bin
(PID.TID 0000.0001)  MDS_READ_FIELD: opening global file: ncep_qnet.bin
(PID.TID 0000.0001)  MDS_READ_FIELD: opening global file: ncep_qnet.bin
(PID.TID 0000.0001)  MDS_READ_FIELD: opening global file: ncep_emp.bin
(PID.TID 0000.0001)  MDS_READ_FIELD: opening global file: ncep_emp.bin
(PID.TID 0000.0001)  MDS_READ_FIELD: opening global file: lev_sst.bin
(PID.TID 0000.0001)  MDS_READ_FIELD: opening global file: lev_sst.bin
(PID.TID 0000.0001)  MDS_READ_FIELD: opening global file: lev_sss.bin
(PID.TID 0000.0001)  MDS_READ_FIELD: opening global file: lev_sss.bin
 EXTERNAL_FIELDS_LOAD: (fu0,1),fu,fv= -2.7199E-02 -3.7252E-02 -2.7199E-02 -5.7807E-04
 EXTERNAL_FIELDS_LOAD: SST,SSS,Q,E-P= -1.8390E-01  3.4579E+01  2.1540E+02  9.0808E-06
DEBUG_STATS_RL:          Uvel (THERMODYNAMICS)  min= -1.22872086685861E-01
DEBUG_STATS_RL:          Uvel (THERMODYNAMICS)  max=  1.42590476666721E-01
DEBUG_STATS_RL:          Uvel (THERMODYNAMICS) mean=  6.16724376767391E-03
DEBUG_STATS_RL:          Uvel (THERMODYNAMICS) S.D.=  2.21011814451159E-02
DEBUG_STATS_RL:          Vvel (THERMODYNAMICS)  min= -7.57409335580807E-02
DEBUG_STATS_RL:          Vvel (THERMODYNAMICS)  max=  1.38536016680734E-01
DEBUG_STATS_RL:          Vvel (THERMODYNAMICS) mean=  8.69612578277643E-04
DEBUG_STATS_RL:          Vvel (THERMODYNAMICS) S.D.=  1.32558235724203E-02
DEBUG_STATS_RL:          Wvel (THERMODYNAMICS)  min= -7.41964976744908E-05
DEBUG_STATS_RL:          Wvel (THERMODYNAMICS)  max=  1.68456790241499E-04
DEBUG_STATS_RL:          Wvel (THERMODYNAMICS) mean= -2.33057911154406E-08
DEBUG_STATS_RL:          Wvel (THERMODYNAMICS) S.D.=  9.11721615021698E-06
DEBUG_STATS_RL:         Theta (THERMODYNAMICS)  min= -1.94799206102980E+00
DEBUG_STATS_RL:         Theta (THERMODYNAMICS)  max=  3.09315778075647E+01
DEBUG_STATS_RL:         Theta (THERMODYNAMICS) mean=  3.22136145677131E+00
DEBUG_STATS_RL:         Theta (THERMODYNAMICS) S.D.=  5.88493941776636E+00
DEBUG_STATS_RL:          Salt (THERMODYNAMICS)  min= -2.77555756156289E-17
DEBUG_STATS_RL:          Salt (THERMODYNAMICS)  max=  3.74635565224316E+01
DEBUG_STATS_RL:          Salt (THERMODYNAMICS) mean=  1.88447303229374E+01
DEBUG_STATS_RL:          Salt (THERMODYNAMICS) S.D.=  1.73002782718942E+01
DEBUG_STATS_RL:         GtNm1 (THERMODYNAMICS)  min= -4.44586375635499E-06
DEBUG_STATS_RL:         GtNm1 (THERMODYNAMICS)  max=  2.26190349528802E-06
DEBUG_STATS_RL:         GtNm1 (THERMODYNAMICS) mean=  2.20498770337403E-09
DEBUG_STATS_RL:         GtNm1 (THERMODYNAMICS) S.D.=  1.46369038704485E-07
DEBUG_STATS_RL:         GsNm1 (THERMODYNAMICS)  min= -4.29929207097866E-07
DEBUG_STATS_RL:         GsNm1 (THERMODYNAMICS)  max=  2.80143304814845E-07
DEBUG_STATS_RL:         GsNm1 (THERMODYNAMICS) mean=  1.54424203041075E-11
DEBUG_STATS_RL:         GsNm1 (THERMODYNAMICS) S.D.=  1.36484708692876E-08
DEBUG_STATS_RL:                EtaN (DYNAMICS)  min= -1.88789758052182E+00
DEBUG_STATS_RL:                EtaN (DYNAMICS)  max=  9.28450892866767E-01
DEBUG_STATS_RL:                EtaN (DYNAMICS) mean= -1.87687098242042E-01
DEBUG_STATS_RL:                EtaN (DYNAMICS) S.D.=  7.23864174807010E-01
DEBUG_STATS_RL:                Uvel (DYNAMICS)  min= -1.22872086685861E-01
DEBUG_STATS_RL:                Uvel (DYNAMICS)  max=  1.42590476666721E-01
DEBUG_STATS_RL:                Uvel (DYNAMICS) mean=  6.16724376767391E-03
DEBUG_STATS_RL:                Uvel (DYNAMICS) S.D.=  2.21011814451159E-02
DEBUG_STATS_RL:                Vvel (DYNAMICS)  min= -7.57409335580807E-02
DEBUG_STATS_RL:                Vvel (DYNAMICS)  max=  1.38536016680734E-01
DEBUG_STATS_RL:                Vvel (DYNAMICS) mean=  8.69612578277643E-04
DEBUG_STATS_RL:                Vvel (DYNAMICS) S.D.=  1.32558235724203E-02
DEBUG_STATS_RL:                Wvel (DYNAMICS)  min= -7.41964976744908E-05
DEBUG_STATS_RL:                Wvel (DYNAMICS)  max=  1.68456790241499E-04
DEBUG_STATS_RL:                Wvel (DYNAMICS) mean= -2.33057911154406E-08
DEBUG_STATS_RL:                Wvel (DYNAMICS) S.D.=  9.11721615021698E-06
DEBUG_STATS_RL:               Theta (DYNAMICS)  min= -1.94799206102980E+00
DEBUG_STATS_RL:               Theta (DYNAMICS)  max=  3.09315778075647E+01
DEBUG_STATS_RL:               Theta (DYNAMICS) mean=  3.22136145677131E+00
DEBUG_STATS_RL:               Theta (DYNAMICS) S.D.=  5.88493941776636E+00
DEBUG_STATS_RL:                Salt (DYNAMICS)  min= -2.77555756156289E-17
DEBUG_STATS_RL:                Salt (DYNAMICS)  max=  3.74635565224316E+01
DEBUG_STATS_RL:                Salt (DYNAMICS) mean=  1.88447303229374E+01
DEBUG_STATS_RL:                Salt (DYNAMICS) S.D.=  1.73002782718942E+01
DEBUG_STATS_RL:                  Gu (DYNAMICS)  min= -1.22140158111220E-01
DEBUG_STATS_RL:                  Gu (DYNAMICS)  max=  1.43163886466349E-01
DEBUG_STATS_RL:                  Gu (DYNAMICS) mean=  6.10918176417700E-03
DEBUG_STATS_RL:                  Gu (DYNAMICS) S.D.=  2.25538329057404E-02
DEBUG_STATS_RL:                  Gv (DYNAMICS)  min= -7.93378469739873E-02
DEBUG_STATS_RL:                  Gv (DYNAMICS)  max=  1.38472857101750E-01
DEBUG_STATS_RL:                  Gv (DYNAMICS) mean=  3.50827151591385E-03
DEBUG_STATS_RL:                  Gv (DYNAMICS) S.D.=  1.46748324737078E-02
DEBUG_STATS_RL:               GuNm1 (DYNAMICS)  min= -9.98951692332395E-06
DEBUG_STATS_RL:               GuNm1 (DYNAMICS)  max=  9.24297145791951E-06
DEBUG_STATS_RL:               GuNm1 (DYNAMICS) mean=  7.80228696137525E-09
DEBUG_STATS_RL:               GuNm1 (DYNAMICS) S.D.=  1.21906003935136E-06
DEBUG_STATS_RL:               GvNm1 (DYNAMICS)  min= -9.83955170074441E-06
DEBUG_STATS_RL:               GvNm1 (DYNAMICS)  max=  1.56218672068305E-05
DEBUG_STATS_RL:               GvNm1 (DYNAMICS) mean=  7.35861778154203E-07
DEBUG_STATS_RL:               GvNm1 (DYNAMICS) S.D.=  2.61863350353117E-06
DEBUG_STATS_RL:               GtNm1 (DYNAMICS)  min= -4.44586375635499E-06
DEBUG_STATS_RL:               GtNm1 (DYNAMICS)  max=  2.26190349528802E-06
DEBUG_STATS_RL:               GtNm1 (DYNAMICS) mean=  2.20498770337403E-09
DEBUG_STATS_RL:               GtNm1 (DYNAMICS) S.D.=  1.46369038704485E-07
DEBUG_STATS_RL:               GsNm1 (DYNAMICS)  min= -4.29929207097866E-07
DEBUG_STATS_RL:               GsNm1 (DYNAMICS)  max=  2.80143304814845E-07
DEBUG_STATS_RL:               GsNm1 (DYNAMICS) mean=  1.54424203041075E-11
DEBUG_STATS_RL:               GsNm1 (DYNAMICS) S.D.=  1.36484708692876E-08
DEBUG_STATS_RL:    cg2d_b (SOLVE_FOR_PRESSURE)  min= -2.48157654787083E+04
DEBUG_STATS_RL:    cg2d_b (SOLVE_FOR_PRESSURE)  max=  2.50281821988147E+04
DEBUG_STATS_RL:    cg2d_b (SOLVE_FOR_PRESSURE) mean=  5.10574035806214E+00
DEBUG_STATS_RL:    cg2d_b (SOLVE_FOR_PRESSURE) S.D.=  3.90479772069840E+03
 cg2d: Sum(rhs),rhsMax =   4.72259185066853E-01  1.64391801791669E+00
(PID.TID 0000.0001)  cg2d: iter=     1 ; resid.=  6.62225036394481E-02
(PID.TID 0000.0001)  cg2d: iter=     2 ; resid.=  3.92641442948462E-02
(PID.TID 0000.0001)  cg2d: iter=     3 ; resid.=  3.78307086718012E-02
(PID.TID 0000.0001)  cg2d: iter=     4 ; resid.=  4.18345736264906E-02
(PID.TID 0000.0001)  cg2d: iter=     5 ; resid.=  4.23601752237864E-02
(PID.TID 0000.0001)  cg2d: iter=     6 ; resid.=  3.50668792372053E-02
(PID.TID 0000.0001)  cg2d: iter=     7 ; resid.=  2.81304439003676E-02
(PID.TID 0000.0001)  cg2d: iter=     8 ; resid.=  2.11110116991821E-02
(PID.TID 0000.0001)  cg2d: iter=     9 ; resid.=  1.60142911870230E-02
(PID.TID 0000.0001)  cg2d: iter=    10 ; resid.=  1.26412538703510E-02
(PID.TID 0000.0001)  cg2d: iter=    11 ; resid.=  9.90592631235649E-03
(PID.TID 0000.0001)  cg2d: iter=    12 ; resid.=  8.65476765655226E-03
(PID.TID 0000.0001)  cg2d: iter=    13 ; resid.=  7.25868936890822E-03
(PID.TID 0000.0001)  cg2d: iter=    14 ; resid.=  6.25846604530016E-03
(PID.TID 0000.0001)  cg2d: iter=    15 ; resid.=  5.44912456023834E-03
(PID.TID 0000.0001)  cg2d: iter=    16 ; resid.=  4.66611959429166E-03
(PID.TID 0000.0001)  cg2d: iter=    17 ; resid.=  4.06691520717831E-03
(PID.TID 0000.0001)  cg2d: iter=    18 ; resid.=  3.60419487537004E-03
(PID.TID 0000.0001)  cg2d: iter=    19 ; resid.=  2.92911660989041E-03
(PID.TID 0000.0001)  cg2d: iter=    20 ; resid.=  2.28998317678445E-03
(PID.TID 0000.0001)  cg2d: iter=    21 ; resid.=  1.84348490831688E-03
(PID.TID 0000.0001)  cg2d: iter=    22 ; resid.=  1.52005256438953E-03
(PID.TID 0000.0001)  cg2d: iter=    23 ; resid.=  1.37517287894456E-03
(PID.TID 0000.0001)  cg2d: iter=    24 ; resid.=  1.19703802909282E-03
(PID.TID 0000.0001)  cg2d: iter=    25 ; resid.=  9.99673223815243E-04
(PID.TID 0000.0001)  cg2d: iter=    26 ; resid.=  8.23037654560546E-04
(PID.TID 0000.0001)  cg2d: iter=    27 ; resid.=  6.26040542998894E-04
(PID.TID 0000.0001)  cg2d: iter=    28 ; resid.=  5.07998565242530E-04
(PID.TID 0000.0001)  cg2d: iter=    29 ; resid.=  3.99933701279206E-04
(PID.TID 0000.0001)  cg2d: iter=    30 ; resid.=  3.32598260197251E-04
(PID.TID 0000.0001)  cg2d: iter=    31 ; resid.=  2.86475484883870E-04
(PID.TID 0000.0001)  cg2d: iter=    32 ; resid.=  2.26661732941964E-04
(PID.TID 0000.0001)  cg2d: iter=    33 ; resid.=  1.94974036432235E-04
(PID.TID 0000.0001)  cg2d: iter=    34 ; resid.=  1.59986603864334E-04
(PID.TID 0000.0001)  cg2d: iter=    35 ; resid.=  1.28435021163567E-04
(PID.TID 0000.0001)  cg2d: iter=    36 ; resid.=  1.11866324875788E-04
(PID.TID 0000.0001)  cg2d: iter=    37 ; resid.=  1.02570218777213E-04
(PID.TID 0000.0001)  cg2d: iter=    38 ; resid.=  9.76420918359990E-05
(PID.TID 0000.0001)  cg2d: iter=    39 ; resid.=  8.66172590028290E-05
(PID.TID 0000.0001)  cg2d: iter=    40 ; resid.=  7.14315665644308E-05
(PID.TID 0000.0001)  cg2d: iter=    41 ; resid.=  5.13199357339197E-05
(PID.TID 0000.0001)  cg2d: iter=    42 ; resid.=  4.26221920836486E-05
(PID.TID 0000.0001)  cg2d: iter=    43 ; resid.=  3.82878120709443E-05
(PID.TID 0000.0001)  cg2d: iter=    44 ; resid.=  3.30337757308171E-05
(PID.TID 0000.0001)  cg2d: iter=    45 ; resid.=  2.63429066338256E-05
(PID.TID 0000.0001)  cg2d: iter=    46 ; resid.=  2.10643567183507E-05
(PID.TID 0000.0001)  cg2d: iter=    47 ; resid.=  1.69025624808604E-05
(PID.TID 0000.0001)  cg2d: iter=    48 ; resid.=  1.38091626210323E-05
(PID.TID 0000.0001)  cg2d: iter=    49 ; resid.=  1.18518798532169E-05
(PID.TID 0000.0001)  cg2d: iter=    50 ; resid.=  1.02370285989437E-05
(PID.TID 0000.0001)  cg2d: iter=    51 ; resid.=  9.50649913877559E-06
(PID.TID 0000.0001)  cg2d: iter=    52 ; resid.=  8.10071069560491E-06
(PID.TID 0000.0001)  cg2d: iter=    53 ; resid.=  6.86955878798445E-06
(PID.TID 0000.0001)  cg2d: iter=    54 ; resid.=  5.40268278785040E-06
(PID.TID 0000.0001)  cg2d: iter=    55 ; resid.=  4.33447669091227E-06
(PID.TID 0000.0001)  cg2d: iter=    56 ; resid.=  3.44660641862372E-06
(PID.TID 0000.0001)  cg2d: iter=    57 ; resid.=  2.79256069367935E-06
(PID.TID 0000.0001)  cg2d: iter=    58 ; resid.=  2.27449072921085E-06
(PID.TID 0000.0001)  cg2d: iter=    59 ; resid.=  1.65425493566799E-06
(PID.TID 0000.0001)  cg2d: iter=    60 ; resid.=  1.15692763309138E-06
(PID.TID 0000.0001)  cg2d: iter=    61 ; resid.=  8.99145776158223E-07
(PID.TID 0000.0001)  cg2d: iter=    62 ; resid.=  7.75757722211893E-07
(PID.TID 0000.0001)  cg2d: iter=    63 ; resid.=  6.89370302226115E-07
(PID.TID 0000.0001)  cg2d: iter=    64 ; resid.=  5.82654413286363E-07
(PID.TID 0000.0001)  cg2d: iter=    65 ; resid.=  4.78991955374216E-07
(PID.TID 0000.0001)  cg2d: iter=    66 ; resid.=  4.00732963713964E-07
(PID.TID 0000.0001)  cg2d: iter=    67 ; resid.=  3.32113564388256E-07
(PID.TID 0000.0001)  cg2d: iter=    68 ; resid.=  2.73438842820805E-07
(PID.TID 0000.0001)  cg2d: iter=    69 ; resid.=  2.21291705644886E-07
(PID.TID 0000.0001)  cg2d: iter=    70 ; resid.=  1.92757651571239E-07
(PID.TID 0000.0001)  cg2d: iter=    71 ; resid.=  1.64098802659026E-07
(PID.TID 0000.0001)  cg2d: iter=    72 ; resid.=  1.40611547959406E-07
(PID.TID 0000.0001)  cg2d: iter=    73 ; resid.=  1.22664904820268E-07
(PID.TID 0000.0001)  cg2d: iter=    74 ; resid.=  1.09696803793176E-07
(PID.TID 0000.0001)  cg2d: iter=    75 ; resid.=  8.70579952927709E-08
(PID.TID 0000.0001)  cg2d: iter=    76 ; resid.=  7.06637661543484E-08
(PID.TID 0000.0001)  cg2d: iter=    77 ; resid.=  5.35473576970244E-08
(PID.TID 0000.0001)  cg2d: iter=    78 ; resid.=  3.95195534113342E-08
(PID.TID 0000.0001)  cg2d: iter=    79 ; resid.=  2.95884055792397E-08
(PID.TID 0000.0001)  cg2d: iter=    80 ; resid.=  2.30630696724510E-08
(PID.TID 0000.0001)  cg2d: iter=    81 ; resid.=  1.97337422706140E-08
(PID.TID 0000.0001)  cg2d: iter=    82 ; resid.=  1.55349469264596E-08
(PID.TID 0000.0001)  cg2d: iter=    83 ; resid.=  1.18132787808075E-08
(PID.TID 0000.0001)  cg2d: iter=    84 ; resid.=  8.84894509854417E-09
(PID.TID 0000.0001)  cg2d: iter=    85 ; resid.=  5.82364293465768E-09
(PID.TID 0000.0001)  cg2d: iter=    86 ; resid.=  4.15208472088484E-09
(PID.TID 0000.0001)  cg2d: iter=    87 ; resid.=  3.07693089992719E-09
(PID.TID 0000.0001)  cg2d: iter=    88 ; resid.=  2.36561681656714E-09
(PID.TID 0000.0001)  cg2d: iter=    89 ; resid.=  1.95603686426653E-09
(PID.TID 0000.0001)  cg2d: iter=    90 ; resid.=  1.74315166423005E-09
(PID.TID 0000.0001)  cg2d: iter=    91 ; resid.=  1.55831718182687E-09
(PID.TID 0000.0001)  cg2d: iter=    92 ; resid.=  1.33083923291145E-09
(PID.TID 0000.0001)  cg2d: iter=    93 ; resid.=  1.07046928072980E-09
(PID.TID 0000.0001)  cg2d: iter=    94 ; resid.=  8.70712273271747E-10
(PID.TID 0000.0001)  cg2d: iter=    95 ; resid.=  6.85972421274674E-10
(PID.TID 0000.0001)  cg2d: iter=    96 ; resid.=  5.76188657890924E-10
(PID.TID 0000.0001)  cg2d: iter=    97 ; resid.=  4.65704207467086E-10
(PID.TID 0000.0001)  cg2d: iter=    98 ; resid.=  3.62654597922768E-10
(PID.TID 0000.0001)  cg2d: iter=    99 ; resid.=  2.80766388384916E-10
(PID.TID 0000.0001)  cg2d: iter=   100 ; resid.=  2.39233258241185E-10
(PID.TID 0000.0001)  cg2d: iter=   101 ; resid.=  2.00946855383120E-10
(PID.TID 0000.0001)  cg2d: iter=   102 ; resid.=  1.60642208070215E-10
(PID.TID 0000.0001)  cg2d: iter=   103 ; resid.=  1.22243443871439E-10
(PID.TID 0000.0001)  cg2d: iter=   104 ; resid.=  9.07529148548120E-11
(PID.TID 0000.0001)  cg2d: iter=   105 ; resid.=  6.99265680719726E-11
(PID.TID 0000.0001)  cg2d: iter=   106 ; resid.=  5.87182956519935E-11
(PID.TID 0000.0001)  cg2d: iter=   107 ; resid.=  4.55605078285295E-11
(PID.TID 0000.0001)  cg2d: iter=   108 ; resid.=  3.40339338380796E-11
(PID.TID 0000.0001)  cg2d: iter=   109 ; resid.=  2.48190725860839E-11
(PID.TID 0000.0001)  cg2d: iter=   110 ; resid.=  1.64324880309190E-11
(PID.TID 0000.0001)  cg2d: iter=   111 ; resid.=  1.24970307734897E-11
(PID.TID 0000.0001)  cg2d: iter=   112 ; resid.=  9.44931179791004E-12
(PID.TID 0000.0001)  cg2d: iter=   113 ; resid.=  6.90862819905626E-12
(PID.TID 0000.0001)  cg2d: iter=   114 ; resid.=  5.24434689927082E-12
(PID.TID 0000.0001)  cg2d: iter=   115 ; resid.=  3.72196442019330E-12
(PID.TID 0000.0001)  cg2d: iter=   116 ; resid.=  2.73355139275310E-12
(PID.TID 0000.0001)  cg2d: iter=   117 ; resid.=  2.27464264153013E-12
(PID.TID 0000.0001)  cg2d: iter=   118 ; resid.=  1.79527674187580E-12
(PID.TID 0000.0001)  cg2d: iter=   119 ; resid.=  1.37873155794787E-12
(PID.TID 0000.0001)  cg2d: iter=   120 ; resid.=  1.03544970030264E-12
(PID.TID 0000.0001)  cg2d: iter=   121 ; resid.=  7.93584300708331E-13
(PID.TID 0000.0001)  cg2d: iter=   122 ; resid.=  6.11412255760481E-13
(PID.TID 0000.0001)  cg2d: iter=   123 ; resid.=  4.74579852089281E-13
(PID.TID 0000.0001)  cg2d: iter=   124 ; resid.=  3.97655229687731E-13
(PID.TID 0000.0001)  cg2d: iter=   125 ; resid.=  3.23383601726397E-13
(PID.TID 0000.0001)  cg2d: iter=   126 ; resid.=  2.49168575103380E-13
(PID.TID 0000.0001)  cg2d: iter=   127 ; resid.=  1.72260505415323E-13
(PID.TID 0000.0001)  cg2d: iter=   128 ; resid.=  1.21009441384634E-13
(PID.TID 0000.0001)  cg2d: iter=   129 ; resid.=  8.60135593489361E-14
DEBUG_STATS_RL:    cg2d_x (SOLVE_FOR_PRESSURE)  min= -1.85064336621679E+01
DEBUG_STATS_RL:    cg2d_x (SOLVE_FOR_PRESSURE)  max=  9.03695145968509E+00
DEBUG_STATS_RL:    cg2d_x (SOLVE_FOR_PRESSURE) mean= -1.83919850546361E+00
DEBUG_STATS_RL:    cg2d_x (SOLVE_FOR_PRESSURE) S.D.=  7.08437501763274E+00
(PID.TID 0000.0001)      cg2d_init_res =   2.36456806752587E-01
(PID.TID 0000.0001)      cg2d_iters(min,last) =      -1     129
(PID.TID 0000.0001)      cg2d_last_res =   8.60135593489361E-14
(PID.TID 0000.0001) // =======================================================
(PID.TID 0000.0001) // Begin MONITOR dynamic field statistics
(PID.TID 0000.0001) // =======================================================
(PID.TID 0000.0001) %MON time_tsnumber                =                    76
(PID.TID 0000.0001) %MON time_secondsf                =   6.5664000000000E+06
(PID.TID 0000.0001) %MON dynstat_eta_max              =   9.2119790618599E-01
(PID.TID 0000.0001) %MON dynstat_eta_min              =  -1.8864866118416E+00
(PID.TID 0000.0001) %MON dynstat_eta_mean             =  -5.3272069727346E-03
(PID.TID 0000.0001) %MON dynstat_eta_sd               =   6.2221564870308E-01
(PID.TID 0000.0001) %MON dynstat_eta_del2             =   2.4432294063014E-03
(PID.TID 0000.0001) %MON dynstat_uvel_max             =   1.3936626881472E-01
(PID.TID 0000.0001) %MON dynstat_uvel_min             =  -1.2403594227181E-01
(PID.TID 0000.0001) %MON dynstat_uvel_mean            =   2.4343780600687E-03
(PID.TID 0000.0001) %MON dynstat_uvel_sd              =   1.3621915993538E-02
(PID.TID 0000.0001) %MON dynstat_uvel_del2            =   8.2405843817453E-05
(PID.TID 0000.0001) %MON dynstat_vvel_max             =   1.3638993289471E-01
(PID.TID 0000.0001) %MON dynstat_vvel_min             =  -7.4236128760207E-02
(PID.TID 0000.0001) %MON dynstat_vvel_mean            =   2.0308916471877E-05
(PID.TID 0000.0001) %MON dynstat_vvel_sd              =   8.0857011073951E-03
(PID.TID 0000.0001) %MON dynstat_vvel_del2            =   7.1956445320714E-05
(PID.TID 0000.0001) %MON dynstat_wvel_max             =   1.6843584996128E-04
(PID.TID 0000.0001) %MON dynstat_wvel_min             =  -7.2846852248668E-05
(PID.TID 0000.0001) %MON dynstat_wvel_mean            =   2.5526501476796E-22
(PID.TID 0000.0001) %MON dynstat_wvel_sd              =   1.0206283529504E-05
(PID.TID 0000.0001) %MON dynstat_wvel_del2            =   1.0116033100947E-07
(PID.TID 0000.0001) %MON dynstat_theta_max            =   3.0931577807565E+01
(PID.TID 0000.0001) %MON dynstat_theta_min            =  -1.9479920610298E+00
(PID.TID 0000.0001) %MON dynstat_theta_mean           =   3.6240900711954E+00
(PID.TID 0000.0001) %MON dynstat_theta_sd             =   4.4270256478957E+00
(PID.TID 0000.0001) %MON dynstat_theta_del2           =   4.8506397829070E-03
(PID.TID 0000.0001) %MON dynstat_salt_max             =   3.7463556522432E+01
(PID.TID 0000.0001) %MON dynstat_salt_min             =   2.9904859999963E+01
(PID.TID 0000.0001) %MON dynstat_salt_mean            =   3.4717999852964E+01
(PID.TID 0000.0001) %MON dynstat_salt_sd              =   2.9654898800748E-01
(PID.TID 0000.0001) %MON dynstat_salt_del2            =   9.8940688944750E-04
(PID.TID 0000.0001) %MON dynstat_sst_max              =   3.0931577807565E+01
(PID.TID 0000.0001) %MON dynstat_sst_min              =  -1.9479920610298E+00
(PID.TID 0000.0001) %MON dynstat_sst_mean             =   1.9051508696808E+01
(PID.TID 0000.0001) %MON dynstat_sst_sd               =   9.1484356623983E+00
(PID.TID 0000.0001) %MON dynstat_sst_del2             =   2.8597217218520E-02
(PID.TID 0000.0001) %MON dynstat_sss_max              =   3.7457943703564E+01
(PID.TID 0000.0001) %MON dynstat_sss_min              =   2.9904859999963E+01
(PID.TID 0000.0001) %MON dynstat_sss_mean             =   3.4837415753973E+01
(PID.TID 0000.0001) %MON dynstat_sss_sd               =   9.8531739655380E-01
(PID.TID 0000.0001) %MON dynstat_sss_del2             =   8.1226842460967E-03
(PID.TID 0000.0001) %MON forcing_qnet_max             =   2.7450769042969E+02
(PID.TID 0000.0001) %MON forcing_qnet_min             =  -1.6385559082031E+02
(PID.TID 0000.0001) %MON forcing_qnet_mean            =  -7.2650659901446E+00
(PID.TID 0000.0001) %MON forcing_qnet_sd              =   4.6489538210055E+01
(PID.TID 0000.0001) %MON forcing_qnet_del2            =   8.5238739722118E-01
(PID.TID 0000.0001) %MON forcing_qsw_max              =   0.0000000000000E+00
(PID.TID 0000.0001) %MON forcing_qsw_min              =   0.0000000000000E+00
(PID.TID 0000.0001) %MON forcing_qsw_mean             =   0.0000000000000E+00
(PID.TID 0000.0001) %MON forcing_qsw_sd               =   0.0000000000000E+00
(PID.TID 0000.0001) %MON forcing_qsw_del2             =   0.0000000000000E+00
(PID.TID 0000.0001) %MON forcing_empmr_max            =   6.9108821776354E-05
(PID.TID 0000.0001) %MON forcing_empmr_min            =  -8.3264417582996E-05
(PID.TID 0000.0001) %MON forcing_empmr_mean           =   5.5071105367869E-07
(PID.TID 0000.0001) %MON forcing_empmr_sd             =   2.6288642314053E-05
(PID.TID 0000.0001) %MON forcing_empmr_del2           =   3.6649371259951E-07
(PID.TID 0000.0001) %MON forcing_fu_max               =   3.5755139589310E-01
(PID.TID 0000.0001) %MON forcing_fu_min               =  -3.8855642080307E-01
(PID.TID 0000.0001) %MON forcing_fu_mean              =   2.0456729300388E-02
(PID.TID 0000.0001) %MON forcing_fu_sd                =   1.0213469725884E-01
(PID.TID 0000.0001) %MON forcing_fu_del2              =   8.4850782651584E-04
(PID.TID 0000.0001) %MON forcing_fv_max               =   1.8330034613609E-01
(PID.TID 0000.0001) %MON forcing_fv_min               =  -1.9333162903786E-01
(PID.TID 0000.0001) %MON forcing_fv_mean              =  -7.5295754400446E-03
(PID.TID 0000.0001) %MON forcing_fv_sd                =   4.2684681983358E-02
(PID.TID 0000.0001) %MON forcing_fv_del2              =   5.0763502385068E-04
(PID.TID 0000.0001) %MON trAdv_CFL_u_max              =   4.7140804091438E-02
(PID.TID 0000.0001) %MON trAdv_CFL_v_max              =   2.6805645711878E-02
(PID.TID 0000.0001) %MON trAdv_CFL_w_max              =   3.7319658145809E-02
(PID.TID 0000.0001) %MON advcfl_uvel_max              =   4.6065515864628E-02
(PID.TID 0000.0001) %MON advcfl_vvel_max              =   2.6498376529905E-02
(PID.TID 0000.0001) %MON advcfl_wvel_max              =   3.9870842292205E-02
(PID.TID 0000.0001) %MON advcfl_W_hf_max              =   4.2802521872514E-02
(PID.TID 0000.0001) %MON pe_b_mean                    =   4.9544436419875E-04
(PID.TID 0000.0001) %MON ke_max                       =   1.1766354300397E-02
(PID.TID 0000.0001) %MON ke_mean                      =   1.1634501787634E-04
(PID.TID 0000.0001) %MON ke_vol                       =   1.3226782436723E+18
(PID.TID 0000.0001) %MON vort_r_min                   =  -3.3072467840756E-07
(PID.TID 0000.0001) %MON vort_r_max                   =   4.0033837106426E-07
(PID.TID 0000.0001) %MON vort_a_mean                  =  -2.5274807039618E-05
(PID.TID 0000.0001) %MON vort_a_sd                    =   7.3604677337019E-05
(PID.TID 0000.0001) %MON vort_p_mean                  =  -3.1845655348611E-05
(PID.TID 0000.0001) %MON vort_p_sd                    =   1.3162488424785E-04
(PID.TID 0000.0001) %MON surfExpan_theta_mean         =   2.1246308341343E-08
(PID.TID 0000.0001) %MON surfExpan_salt_mean          =   5.2354692819692E-08
(PID.TID 0000.0001) // =======================================================
(PID.TID 0000.0001) // End MONITOR dynamic field statistics
(PID.TID 0000.0001) // =======================================================
 EXTERNAL_FIELDS_LOAD,        76 : iP,iLd,i0,i1=    3    4    3    4 ; Wght=  0.9666666667  0.0333333333
 EXTERNAL_FIELDS_LOAD: (fu0,1),fu,fv= -2.7199E-02 -3.7252E-02 -2.7534E-02 -1.7327E-03
 EXTERNAL_FIELDS_LOAD: SST,SSS,Q,E-P= -1.7660E-01  3.4579E+01  2.1169E+02  9.0370E-06
DEBUG_STATS_RL:          Uvel (THERMODYNAMICS)  min= -1.24035942271814E-01
DEBUG_STATS_RL:          Uvel (THERMODYNAMICS)  max=  1.39366268814719E-01
DEBUG_STATS_RL:          Uvel (THERMODYNAMICS) mean=  6.19688247736620E-03
DEBUG_STATS_RL:          Uvel (THERMODYNAMICS) S.D.=  2.21636590201484E-02
DEBUG_STATS_RL:          Vvel (THERMODYNAMICS)  min= -7.42361287602068E-02
DEBUG_STATS_RL:          Vvel (THERMODYNAMICS)  max=  1.36389932894714E-01
DEBUG_STATS_RL:          Vvel (THERMODYNAMICS) mean=  9.18955380365229E-04
DEBUG_STATS_RL:          Vvel (THERMODYNAMICS) S.D.=  1.32410969322970E-02
DEBUG_STATS_RL:          Wvel (THERMODYNAMICS)  min= -7.28468522486677E-05
DEBUG_STATS_RL:          Wvel (THERMODYNAMICS)  max=  1.68435849961283E-04
DEBUG_STATS_RL:          Wvel (THERMODYNAMICS) mean= -1.25935165287642E-08
DEBUG_STATS_RL:          Wvel (THERMODYNAMICS) S.D.=  9.09119260041257E-06
DEBUG_STATS_RL:         Theta (THERMODYNAMICS)  min= -1.94676022534196E+00
DEBUG_STATS_RL:         Theta (THERMODYNAMICS)  max=  3.09570823396260E+01
DEBUG_STATS_RL:         Theta (THERMODYNAMICS) mean=  3.22140708565567E+00
DEBUG_STATS_RL:         Theta (THERMODYNAMICS) S.D.=  5.88541275686101E+00
DEBUG_STATS_RL:          Salt (THERMODYNAMICS)  min= -2.77555756156289E-17
DEBUG_STATS_RL:          Salt (THERMODYNAMICS)  max=  3.74631038731487E+01
DEBUG_STATS_RL:          Salt (THERMODYNAMICS) mean=  1.88447356287427E+01
DEBUG_STATS_RL:          Salt (THERMODYNAMICS) S.D.=  1.73002838064417E+01
DEBUG_STATS_RL:         GtNm1 (THERMODYNAMICS)  min= -4.49309791038793E-06
DEBUG_STATS_RL:         GtNm1 (THERMODYNAMICS)  max=  2.31147902529536E-06
DEBUG_STATS_RL:         GtNm1 (THERMODYNAMICS) mean=  1.87968836641181E-09
DEBUG_STATS_RL:         GtNm1 (THERMODYNAMICS) S.D.=  1.46802856069154E-07
DEBUG_STATS_RL:         GsNm1 (THERMODYNAMICS)  min= -4.40460935811711E-07
DEBUG_STATS_RL:         GsNm1 (THERMODYNAMICS)  max=  2.87780199380406E-07
DEBUG_STATS_RL:         GsNm1 (THERMODYNAMICS) mean=  3.74165661258770E-11
DEBUG_STATS_RL:         GsNm1 (THERMODYNAMICS) S.D.=  1.38027226651536E-08
DEBUG_STATS_RL:                EtaN (DYNAMICS)  min= -1.88648661184163E+00
DEBUG_STATS_RL:                EtaN (DYNAMICS)  max=  9.21197906185987E-01
DEBUG_STATS_RL:                EtaN (DYNAMICS) mean= -1.87482008711889E-01
DEBUG_STATS_RL:                EtaN (DYNAMICS) S.D.=  7.22158513520156E-01
DEBUG_STATS_RL:                Uvel (DYNAMICS)  min= -1.24035942271814E-01
DEBUG_STATS_RL:                Uvel (DYNAMICS)  max=  1.39366268814719E-01
DEBUG_STATS_RL:                Uvel (DYNAMICS) mean=  6.19688247736620E-03
DEBUG_STATS_RL:                Uvel (DYNAMICS) S.D.=  2.21636590201484E-02
DEBUG_STATS_RL:                Vvel (DYNAMICS)  min= -7.42361287602068E-02
DEBUG_STATS_RL:                Vvel (DYNAMICS)  max=  1.36389932894714E-01
DEBUG_STATS_RL:                Vvel (DYNAMICS) mean=  9.18955380365229E-04
DEBUG_STATS_RL:                Vvel (DYNAMICS) S.D.=  1.32410969322970E-02
DEBUG_STATS_RL:                Wvel (DYNAMICS)  min= -7.28468522486677E-05
DEBUG_STATS_RL:                Wvel (DYNAMICS)  max=  1.68435849961283E-04
DEBUG_STATS_RL:                Wvel (DYNAMICS) mean= -1.25935165287642E-08
DEBUG_STATS_RL:                Wvel (DYNAMICS) S.D.=  9.09119260041257E-06
DEBUG_STATS_RL:               Theta (DYNAMICS)  min= -1.94676022534196E+00
DEBUG_STATS_RL:               Theta (DYNAMICS)  max=  3.09570823396260E+01
DEBUG_STATS_RL:               Theta (DYNAMICS) mean=  3.22140708565567E+00
DEBUG_STATS_RL:               Theta (DYNAMICS) S.D.=  5.88541275686101E+00
DEBUG_STATS_RL:                Salt (DYNAMICS)  min= -2.77555756156289E-17
DEBUG_STATS_RL:                Salt (DYNAMICS)  max=  3.74631038731487E+01
DEBUG_STATS_RL:                Salt (DYNAMICS) mean=  1.88447356287427E+01
DEBUG_STATS_RL:                Salt (DYNAMICS) S.D.=  1.73002838064417E+01
DEBUG_STATS_RL:                  Gu (DYNAMICS)  min= -1.23270548511297E-01
DEBUG_STATS_RL:                  Gu (DYNAMICS)  max=  1.47806523017182E-01
DEBUG_STATS_RL:                  Gu (DYNAMICS) mean=  6.12704941276373E-03
DEBUG_STATS_RL:                  Gu (DYNAMICS) S.D.=  2.25864202943627E-02
DEBUG_STATS_RL:                  Gv (DYNAMICS)  min= -7.46946278310033E-02
DEBUG_STATS_RL:                  Gv (DYNAMICS)  max=  1.36312130567922E-01
DEBUG_STATS_RL:                  Gv (DYNAMICS) mean=  3.55960267222070E-03
DEBUG_STATS_RL:                  Gv (DYNAMICS) S.D.=  1.46977729641951E-02
DEBUG_STATS_RL:               GuNm1 (DYNAMICS)  min= -9.97713824734238E-06
DEBUG_STATS_RL:               GuNm1 (DYNAMICS)  max=  9.24968578477022E-06
DEBUG_STATS_RL:               GuNm1 (DYNAMICS) mean=  7.87231266130571E-09
DEBUG_STATS_RL:               GuNm1 (DYNAMICS) S.D.=  1.21895463329324E-06
DEBUG_STATS_RL:               GvNm1 (DYNAMICS)  min= -9.79730670082776E-06
DEBUG_STATS_RL:               GvNm1 (DYNAMICS)  max=  1.56104931164763E-05
DEBUG_STATS_RL:               GvNm1 (DYNAMICS) mean=  7.36175745074468E-07
DEBUG_STATS_RL:               GvNm1 (DYNAMICS) S.D.=  2.61693348839345E-06
DEBUG_STATS_RL:               GtNm1 (DYNAMICS)  min= -4.49309791038793E-06
DEBUG_STATS_RL:               GtNm1 (DYNAMICS)  max=  2.31147902529536E-06
DEBUG_STATS_RL:               GtNm1 (DYNAMICS) mean=  1.87968836641181E-09
DEBUG_STATS_RL:               GtNm1 (DYNAMICS) S.D.=  1.46802856069154E-07
DEBUG_STATS_RL:               GsNm1 (DYNAMICS)  min= -4.40460935811711E-07
DEBUG_STATS_RL:               GsNm1 (DYNAMICS)  max=  2.87780199380406E-07
DEBUG_STATS_RL:               GsNm1 (DYNAMICS) mean=  3.74165661258770E-11
DEBUG_STATS_RL:               GsNm1 (DYNAMICS) S.D.=  1.38027226651536E-08
DEBUG_STATS_RL:    cg2d_b (SOLVE_FOR_PRESSURE)  min= -2.50402362635403E+04
DEBUG_STATS_RL:    cg2d_b (SOLVE_FOR_PRESSURE)  max=  2.53833960833390E+04
DEBUG_STATS_RL:    cg2d_b (SOLVE_FOR_PRESSURE) mean=  5.14800575501331E+00
DEBUG_STATS_RL:    cg2d_b (SOLVE_FOR_PRESSURE) S.D.=  3.90470564132972E+03
 cg2d: Sum(rhs),rhsMax =   4.69505076615027E-01  1.66724941691103E+00
(PID.TID 0000.0001)  cg2d: iter=     1 ; resid.=  6.39388042509693E-02
(PID.TID 0000.0001)  cg2d: iter=     2 ; resid.=  3.66401105063613E-02
(PID.TID 0000.0001)  cg2d: iter=     3 ; resid.=  3.32998213155791E-02
(PID.TID 0000.0001)  cg2d: iter=     4 ; resid.=  3.64324294971197E-02
(PID.TID 0000.0001)  cg2d: iter=     5 ; resid.=  3.72057024018908E-02
(PID.TID 0000.0001)  cg2d: iter=     6 ; resid.=  3.13490912683822E-02
(PID.TID 0000.0001)  cg2d: iter=     7 ; resid.=  2.58632367406070E-02
(PID.TID 0000.0001)  cg2d: iter=     8 ; resid.=  1.98906159301163E-02
(PID.TID 0000.0001)  cg2d: iter=     9 ; resid.=  1.51133590232992E-02
(PID.TID 0000.0001)  cg2d: iter=    10 ; resid.=  1.19983439063016E-02
(PID.TID 0000.0001)  cg2d: iter=    11 ; resid.=  9.35878582968620E-03
(PID.TID 0000.0001)  cg2d: iter=    12 ; resid.=  8.18053930140016E-03
(PID.TID 0000.0001)  cg2d: iter=    13 ; resid.=  6.83573780819951E-03
(PID.TID 0000.0001)  cg2d: iter=    14 ; resid.=  5.90216392839758E-03
(PID.TID 0000.0001)  cg2d: iter=    15 ; resid.=  5.12380467185432E-03
(PID.TID 0000.0001)  cg2d: iter=    16 ; resid.=  4.30384271203483E-03
(PID.TID 0000.0001)  cg2d: iter=    17 ; resid.=  3.73295663514870E-03
(PID.TID 0000.0001)  cg2d: iter=    18 ; resid.=  3.30881355172238E-03
(PID.TID 0000.0001)  cg2d: iter=    19 ; resid.=  2.73094077574998E-03
(PID.TID 0000.0001)  cg2d: iter=    20 ; resid.=  2.13285909501218E-03
(PID.TID 0000.0001)  cg2d: iter=    21 ; resid.=  1.69410678041666E-03
(PID.TID 0000.0001)  cg2d: iter=    22 ; resid.=  1.39511787930820E-03
(PID.TID 0000.0001)  cg2d: iter=    23 ; resid.=  1.26066196824046E-03
(PID.TID 0000.0001)  cg2d: iter=    24 ; resid.=  1.10659822577167E-03
(PID.TID 0000.0001)  cg2d: iter=    25 ; resid.=  9.38449125901670E-04
(PID.TID 0000.0001)  cg2d: iter=    26 ; resid.=  7.82980858976577E-04
(PID.TID 0000.0001)  cg2d: iter=    27 ; resid.=  6.01812515995458E-04
(PID.TID 0000.0001)  cg2d: iter=    28 ; resid.=  4.89324416711739E-04
(PID.TID 0000.0001)  cg2d: iter=    29 ; resid.=  3.84048335995067E-04
(PID.TID 0000.0001)  cg2d: iter=    30 ; resid.=  3.20080112065068E-04
(PID.TID 0000.0001)  cg2d: iter=    31 ; resid.=  2.73025481157677E-04
(PID.TID 0000.0001)  cg2d: iter=    32 ; resid.=  2.13701274293700E-04
(PID.TID 0000.0001)  cg2d: iter=    33 ; resid.=  1.83016778919604E-04
(PID.TID 0000.0001)  cg2d: iter=    34 ; resid.=  1.48241007069826E-04
(PID.TID 0000.0001)  cg2d: iter=    35 ; resid.=  1.19135898110434E-04
(PID.TID 0000.0001)  cg2d: iter=    36 ; resid.=  1.02615619851848E-04
(PID.TID 0000.0001)  cg2d: iter=    37 ; resid.=  9.45536598065186E-05
(PID.TID 0000.0001)  cg2d: iter=    38 ; resid.=  9.11109355734892E-05
(PID.TID 0000.0001)  cg2d: iter=    39 ; resid.=  8.14729262184924E-05
(PID.TID 0000.0001)  cg2d: iter=    40 ; resid.=  6.78644048287396E-05
(PID.TID 0000.0001)  cg2d: iter=    41 ; resid.=  4.88703590423713E-05
(PID.TID 0000.0001)  cg2d: iter=    42 ; resid.=  4.02780164322393E-05
(PID.TID 0000.0001)  cg2d: iter=    43 ; resid.=  3.53890695544410E-05
(PID.TID 0000.0001)  cg2d: iter=    44 ; resid.=  3.05869108752265E-05
(PID.TID 0000.0001)  cg2d: iter=    45 ; resid.=  2.48085600482494E-05
(PID.TID 0000.0001)  cg2d: iter=    46 ; resid.=  1.97938640763746E-05
(PID.TID 0000.0001)  cg2d: iter=    47 ; resid.=  1.58050532821977E-05
(PID.TID 0000.0001)  cg2d: iter=    48 ; resid.=  1.28275626624932E-05
(PID.TID 0000.0001)  cg2d: iter=    49 ; resid.=  1.09763138100850E-05
(PID.TID 0000.0001)  cg2d: iter=    50 ; resid.=  9.48425067631433E-06
(PID.TID 0000.0001)  cg2d: iter=    51 ; resid.=  8.82555481740151E-06
(PID.TID 0000.0001)  cg2d: iter=    52 ; resid.=  7.62086759476672E-06
(PID.TID 0000.0001)  cg2d: iter=    53 ; resid.=  6.44332695902003E-06
(PID.TID 0000.0001)  cg2d: iter=    54 ; resid.=  5.04783879961893E-06
(PID.TID 0000.0001)  cg2d: iter=    55 ; resid.=  4.01282924660313E-06
(PID.TID 0000.0001)  cg2d: iter=    56 ; resid.=  3.16301854044578E-06
(PID.TID 0000.0001)  cg2d: iter=    57 ; resid.=  2.58079939004105E-06
(PID.TID 0000.0001)  cg2d: iter=    58 ; resid.=  2.10412614194838E-06
(PID.TID 0000.0001)  cg2d: iter=    59 ; resid.=  1.54029439939235E-06
(PID.TID 0000.0001)  cg2d: iter=    60 ; resid.=  1.08553600566778E-06
(PID.TID 0000.0001)  cg2d: iter=    61 ; resid.=  8.39039689537554E-07
(PID.TID 0000.0001)  cg2d: iter=    62 ; resid.=  7.10573923112154E-07
(PID.TID 0000.0001)  cg2d: iter=    63 ; resid.=  6.22667865631194E-07
(PID.TID 0000.0001)  cg2d: iter=    64 ; resid.=  5.22159862907515E-07
(PID.TID 0000.0001)  cg2d: iter=    65 ; resid.=  4.32067397176982E-07
(PID.TID 0000.0001)  cg2d: iter=    66 ; resid.=  3.58347794244884E-07
(PID.TID 0000.0001)  cg2d: iter=    67 ; resid.=  2.98907497362182E-07
(PID.TID 0000.0001)  cg2d: iter=    68 ; resid.=  2.47529715727038E-07
(PID.TID 0000.0001)  cg2d: iter=    69 ; resid.=  1.98424598892658E-07
(PID.TID 0000.0001)  cg2d: iter=    70 ; resid.=  1.70691502904188E-07
(PID.TID 0000.0001)  cg2d: iter=    71 ; resid.=  1.44316516374025E-07
(PID.TID 0000.0001)  cg2d: iter=    72 ; resid.=  1.24078985725427E-07
(PID.TID 0000.0001)  cg2d: iter=    73 ; resid.=  1.07271167245652E-07
(PID.TID 0000.0001)  cg2d: iter=    74 ; resid.=  9.58980127293833E-08
(PID.TID 0000.0001)  cg2d: iter=    75 ; resid.=  7.71635456805599E-08
(PID.TID 0000.0001)  cg2d: iter=    76 ; resid.=  6.37916539391948E-08
(PID.TID 0000.0001)  cg2d: iter=    77 ; resid.=  4.97132499999339E-08
(PID.TID 0000.0001)  cg2d: iter=    78 ; resid.=  3.79846941716532E-08
(PID.TID 0000.0001)  cg2d: iter=    79 ; resid.=  2.85872001619728E-08
(PID.TID 0000.0001)  cg2d: iter=    80 ; resid.=  2.24723340137145E-08
(PID.TID 0000.0001)  cg2d: iter=    81 ; resid.=  1.91631564360270E-08
(PID.TID 0000.0001)  cg2d: iter=    82 ; resid.=  1.47911228304715E-08
(PID.TID 0000.0001)  cg2d: iter=    83 ; resid.=  1.11471670144293E-08
(PID.TID 0000.0001)  cg2d: iter=    84 ; resid.=  8.33383059919354E-09
(PID.TID 0000.0001)  cg2d: iter=    85 ; resid.=  5.59143290978176E-09
(PID.TID 0000.0001)  cg2d: iter=    86 ; resid.=  4.07770308145439E-09
(PID.TID 0000.0001)  cg2d: iter=    87 ; resid.=  3.08960646115822E-09
(PID.TID 0000.0001)  cg2d: iter=    88 ; resid.=  2.40242982498561E-09
(PID.TID 0000.0001)  cg2d: iter=    89 ; resid.=  2.00252514892069E-09
(PID.TID 0000.0001)  cg2d: iter=    90 ; resid.=  1.78924904610028E-09
(PID.TID 0000.0001)  cg2d: iter=    91 ; resid.=  1.59608187048707E-09
(PID.TID 0000.0001)  cg2d: iter=    92 ; resid.=  1.37226532319095E-09
(PID.TID 0000.0001)  cg2d: iter=    93 ; resid.=  1.10023700228746E-09
(PID.TID 0000.0001)  cg2d: iter=    94 ; resid.=  8.97915416852777E-10
(PID.TID 0000.0001)  cg2d: iter=    95 ; resid.=  7.24781246127623E-10
(PID.TID 0000.0001)  cg2d: iter=    96 ; resid.=  6.10422475066210E-10
(PID.TID 0000.0001)  cg2d: iter=    97 ; resid.=  4.91065825181978E-10
(PID.TID 0000.0001)  cg2d: iter=    98 ; resid.=  3.75327509481258E-10
(PID.TID 0000.0001)  cg2d: iter=    99 ; resid.=  2.81775989389637E-10
(PID.TID 0000.0001)  cg2d: iter=   100 ; resid.=  2.34420618240270E-10
(PID.TID 0000.0001)  cg2d: iter=   101 ; resid.=  1.91548660022619E-10
(PID.TID 0000.0001)  cg2d: iter=   102 ; resid.=  1.49509182521337E-10
(PID.TID 0000.0001)  cg2d: iter=   103 ; resid.=  1.11722453221738E-10
(PID.TID 0000.0001)  cg2d: iter=   104 ; resid.=  8.38358955108075E-11
(PID.TID 0000.0001)  cg2d: iter=   105 ; resid.=  6.55975387418432E-11
(PID.TID 0000.0001)  cg2d: iter=   106 ; resid.=  5.49626870022591E-11
(PID.TID 0000.0001)  cg2d: iter=   107 ; resid.=  4.30803408815159E-11
(PID.TID 0000.0001)  cg2d: iter=   108 ; resid.=  3.26667075175591E-11
(PID.TID 0000.0001)  cg2d: iter=   109 ; resid.=  2.39810604917014E-11
(PID.TID 0000.0001)  cg2d: iter=   110 ; resid.=  1.59827476219693E-11
(PID.TID 0000.0001)  cg2d: iter=   111 ; resid.=  1.22741662078359E-11
(PID.TID 0000.0001)  cg2d: iter=   112 ; resid.=  9.30014338366518E-12
(PID.TID 0000.0001)  cg2d: iter=   113 ; resid.=  6.72225885018326E-12
(PID.TID 0000.0001)  cg2d: iter=   114 ; resid.=  4.94091859450270E-12
(PID.TID 0000.0001)  cg2d: iter=   115 ; resid.=  3.39649285918670E-12
(PID.TID 0000.0001)  cg2d: iter=   116 ; resid.=  2.37279029890465E-12
(PID.TID 0000.0001)  cg2d: iter=   117 ; resid.=  1.83658775324890E-12
(PID.TID 0000.0001)  cg2d: iter=   118 ; resid.=  1.37362212075461E-12
(PID.TID 0000.0001)  cg2d: iter=   119 ; resid.=  1.00498362694695E-12
(PID.TID 0000.0001)  cg2d: iter=   120 ; resid.=  7.27452224026791E-13
(PID.TID 0000.0001)  cg2d: iter=   121 ; resid.=  5.38470516110342E-13
(PID.TID 0000.0001)  cg2d: iter=   122 ; resid.=  3.95920502260417E-13
(PID.TID 0000.0001)  cg2d: iter=   123 ; resid.=  3.00173085484916E-13
(PID.TID 0000.0001)  cg2d: iter=   124 ; resid.=  2.49927156918457E-13
(PID.TID 0000.0001)  cg2d: iter=   125 ; resid.=  2.08025916682139E-13
(PID.TID 0000.0001)  cg2d: iter=   126 ; resid.=  1.69901398183747E-13
(PID.TID 0000.0001)  cg2d: iter=   127 ; resid.=  1.23129906950412E-13
(PID.TID 0000.0001)  cg2d: iter=   128 ; resid.=  8.87668766100475E-14
DEBUG_STATS_RL:    cg2d_x (SOLVE_FOR_PRESSURE)  min= -1.84900399424272E+01
DEBUG_STATS_RL:    cg2d_x (SOLVE_FOR_PRESSURE)  max=  8.97252539673034E+00
DEBUG_STATS_RL:    cg2d_x (SOLVE_FOR_PRESSURE) mean= -1.83797831674427E+00
DEBUG_STATS_RL:    cg2d_x (SOLVE_FOR_PRESSURE) S.D.=  7.07242161918920E+00
(PID.TID 0000.0001)      cg2d_init_res =   2.29824558561920E-01
(PID.TID 0000.0001)      cg2d_iters(min,last) =      -1     128
(PID.TID 0000.0001)      cg2d_last_res =   8.87668766100475E-14
(PID.TID 0000.0001) // =======================================================
(PID.TID 0000.0001) // Begin MONITOR dynamic field statistics
(PID.TID 0000.0001) // =======================================================
(PID.TID 0000.0001) %MON time_tsnumber                =                    77
(PID.TID 0000.0001) %MON time_secondsf                =   6.6528000000000E+06
(PID.TID 0000.0001) %MON dynstat_eta_max              =   9.1463051954420E-01
(PID.TID 0000.0001) %MON dynstat_eta_min              =  -1.8848154885247E+00
(PID.TID 0000.0001) %MON dynstat_eta_mean             =  -5.3713056737170E-03
(PID.TID 0000.0001) %MON dynstat_eta_sd               =   6.2044122915261E-01
(PID.TID 0000.0001) %MON dynstat_eta_del2             =   2.4465184646014E-03
(PID.TID 0000.0001) %MON dynstat_uvel_max             =   1.4051026745462E-01
(PID.TID 0000.0001) %MON dynstat_uvel_min             =  -1.2513387020781E-01
(PID.TID 0000.0001) %MON dynstat_uvel_mean            =   2.4672946580336E-03
(PID.TID 0000.0001) %MON dynstat_uvel_sd              =   1.3675469342263E-02
(PID.TID 0000.0001) %MON dynstat_uvel_del2            =   8.2583978406012E-05
(PID.TID 0000.0001) %MON dynstat_vvel_max             =   1.3395990737222E-01
(PID.TID 0000.0001) %MON dynstat_vvel_min             =  -7.3937136040766E-02
(PID.TID 0000.0001) %MON dynstat_vvel_mean            =   1.7344746701486E-05
(PID.TID 0000.0001) %MON dynstat_vvel_sd              =   8.0663641545489E-03
(PID.TID 0000.0001) %MON dynstat_vvel_del2            =   7.1892203006541E-05
(PID.TID 0000.0001) %MON dynstat_wvel_max             =   1.6700206419487E-04
(PID.TID 0000.0001) %MON dynstat_wvel_min             =  -7.1187456834963E-05
(PID.TID 0000.0001) %MON dynstat_wvel_mean            =   2.1697182201433E-22
(PID.TID 0000.0001) %MON dynstat_wvel_sd              =   1.0154008702472E-05
(PID.TID 0000.0001) %MON dynstat_wvel_del2            =   1.0070689487485E-07
(PID.TID 0000.0001) %MON dynstat_theta_max            =   3.0957082339626E+01
(PID.TID 0000.0001) %MON dynstat_theta_min            =  -1.9467602253420E+00
(PID.TID 0000.0001) %MON dynstat_theta_mean           =   3.6241270220870E+00
(PID.TID 0000.0001) %MON dynstat_theta_sd             =   4.4272167559514E+00
(PID.TID 0000.0001) %MON dynstat_theta_del2           =   4.8485591111829E-03
(PID.TID 0000.0001) %MON dynstat_salt_max             =   3.7463103873149E+01
(PID.TID 0000.0001) %MON dynstat_salt_min             =   2.9907550639151E+01
(PID.TID 0000.0001) %MON dynstat_salt_mean            =   3.4717999407762E+01
(PID.TID 0000.0001) %MON dynstat_salt_sd              =   2.9655446717293E-01
(PID.TID 0000.0001) %MON dynstat_salt_del2            =   9.9005443737890E-04
(PID.TID 0000.0001) %MON dynstat_sst_max              =   3.0957082339626E+01
(PID.TID 0000.0001) %MON dynstat_sst_min              =  -1.9467602253420E+00
(PID.TID 0000.0001) %MON dynstat_sst_mean             =   1.9053476036275E+01
(PID.TID 0000.0001) %MON dynstat_sst_sd               =   9.1554613612617E+00
(PID.TID 0000.0001) %MON dynstat_sst_del2             =   2.8653181219961E-02
(PID.TID 0000.0001) %MON dynstat_sss_max              =   3.7458630745351E+01
(PID.TID 0000.0001) %MON dynstat_sss_min              =   2.9907550639151E+01
(PID.TID 0000.0001) %MON dynstat_sss_mean             =   3.4837418383360E+01
(PID.TID 0000.0001) %MON dynstat_sss_sd               =   9.8562653943623E-01
(PID.TID 0000.0001) %MON dynstat_sss_del2             =   8.1359218485715E-03
(PID.TID 0000.0001) %MON forcing_qnet_max             =   2.6980245564779E+02
(PID.TID 0000.0001) %MON forcing_qnet_min             =  -1.6342759450277E+02
(PID.TID 0000.0001) %MON forcing_qnet_mean            =  -6.8680295611749E+00
(PID.TID 0000.0001) %MON forcing_qnet_sd              =   4.5566183658410E+01
(PID.TID 0000.0001) %MON forcing_qnet_del2            =   8.4462547130505E-01
(PID.TID 0000.0001) %MON forcing_qsw_max              =   0.0000000000000E+00
(PID.TID 0000.0001) %MON forcing_qsw_min              =   0.0000000000000E+00
(PID.TID 0000.0001) %MON forcing_qsw_mean             =   0.0000000000000E+00
(PID.TID 0000.0001) %MON forcing_qsw_sd               =   0.0000000000000E+00
(PID.TID 0000.0001) %MON forcing_qsw_del2             =   0.0000000000000E+00
(PID.TID 0000.0001) %MON forcing_empmr_max            =   6.9012650764459E-05
(PID.TID 0000.0001) %MON forcing_empmr_min            =  -8.3279263662916E-05
(PID.TID 0000.0001) %MON forcing_empmr_mean           =   5.2826568885113E-07
(PID.TID 0000.0001) %MON forcing_empmr_sd             =   2.6215922588960E-05
(PID.TID 0000.0001) %MON forcing_empmr_del2           =   3.6580758715705E-07
(PID.TID 0000.0001) %MON forcing_fu_max               =   3.5669511159261E-01
(PID.TID 0000.0001) %MON forcing_fu_min               =  -3.8948949277401E-01
(PID.TID 0000.0001) %MON forcing_fu_mean              =   2.0329537203455E-02
(PID.TID 0000.0001) %MON forcing_fu_sd                =   1.0185090973368E-01
(PID.TID 0000.0001) %MON forcing_fu_del2              =   8.3925956330839E-04
(PID.TID 0000.0001) %MON forcing_fv_max               =   1.8320434490840E-01
(PID.TID 0000.0001) %MON forcing_fv_min               =  -1.8992391626040E-01
(PID.TID 0000.0001) %MON forcing_fv_mean              =  -7.4930987676715E-03
(PID.TID 0000.0001) %MON forcing_fv_sd                =   4.2258946543451E-02
(PID.TID 0000.0001) %MON forcing_fv_del2              =   4.9790745221961E-04
(PID.TID 0000.0001) %MON trAdv_CFL_u_max              =   4.6074872100366E-02
(PID.TID 0000.0001) %MON trAdv_CFL_v_max              =   2.6390395129290E-02
(PID.TID 0000.0001) %MON trAdv_CFL_w_max              =   3.7315019068346E-02
(PID.TID 0000.0001) %MON advcfl_uvel_max              =   4.4696040319060E-02
(PID.TID 0000.0001) %MON advcfl_vvel_max              =   2.6026261543808E-02
(PID.TID 0000.0001) %MON advcfl_wvel_max              =   3.9531447524483E-02
(PID.TID 0000.0001) %MON advcfl_W_hf_max              =   4.2438171607166E-02
(PID.TID 0000.0001) %MON pe_b_mean                    =   4.9262341147166E-04
(PID.TID 0000.0001) %MON ke_max                       =   1.1458498879849E-02
(PID.TID 0000.0001) %MON ke_mean                      =   1.1694219849460E-04
(PID.TID 0000.0001) %MON ke_vol                       =   1.3226782436723E+18
(PID.TID 0000.0001) %MON vort_r_min                   =  -3.4091547275164E-07
(PID.TID 0000.0001) %MON vort_r_max                   =   3.9807530442870E-07
(PID.TID 0000.0001) %MON vort_a_mean                  =  -2.5274807036112E-05
(PID.TID 0000.0001) %MON vort_a_sd                    =   7.3604683259361E-05
(PID.TID 0000.0001) %MON vort_p_mean                  =  -3.1845655344194E-05
(PID.TID 0000.0001) %MON vort_p_sd                    =   1.3162486426184E-04
(PID.TID 0000.0001) %MON surfExpan_theta_mean         =   4.4354154881712E-08
(PID.TID 0000.0001) %MON surfExpan_salt_mean          =   4.6209160727848E-08
(PID.TID 0000.0001) // =======================================================
(PID.TID 0000.0001) // End MONITOR dynamic field statistics
(PID.TID 0000.0001) // =======================================================
 EXTERNAL_FIELDS_LOAD,        77 : iP,iLd,i0,i1=    3    4    3    4 ; Wght=  0.9333333333  0.0666666667
 EXTERNAL_FIELDS_LOAD: (fu0,1),fu,fv= -2.7199E-02 -3.7252E-02 -2.7869E-02 -2.8873E-03
 EXTERNAL_FIELDS_LOAD: SST,SSS,Q,E-P= -1.6929E-01  3.4578E+01  2.0798E+02  8.9933E-06
DEBUG_STATS_RL:          Uvel (THERMODYNAMICS)  min= -1.25133870207805E-01
DEBUG_STATS_RL:          Uvel (THERMODYNAMICS)  max=  1.40510267454616E-01
DEBUG_STATS_RL:          Uvel (THERMODYNAMICS) mean=  6.21619667766733E-03
DEBUG_STATS_RL:          Uvel (THERMODYNAMICS) S.D.=  2.21955523874403E-02
DEBUG_STATS_RL:          Vvel (THERMODYNAMICS)  min= -7.39371360407661E-02
DEBUG_STATS_RL:          Vvel (THERMODYNAMICS)  max=  1.33959907372219E-01
DEBUG_STATS_RL:          Vvel (THERMODYNAMICS) mean=  9.61908662055705E-04
DEBUG_STATS_RL:          Vvel (THERMODYNAMICS) S.D.=  1.32182907468676E-02
DEBUG_STATS_RL:          Wvel (THERMODYNAMICS)  min= -7.11874568349625E-05
DEBUG_STATS_RL:          Wvel (THERMODYNAMICS)  max=  1.67002064194865E-04
DEBUG_STATS_RL:          Wvel (THERMODYNAMICS) mean= -4.12405037699310E-09
DEBUG_STATS_RL:          Wvel (THERMODYNAMICS) S.D.=  9.04083241647956E-06
DEBUG_STATS_RL:         Theta (THERMODYNAMICS)  min= -1.94570479352096E+00
DEBUG_STATS_RL:         Theta (THERMODYNAMICS)  max=  3.09818748789284E+01
DEBUG_STATS_RL:         Theta (THERMODYNAMICS) mean=  3.22143271768979E+00
DEBUG_STATS_RL:         Theta (THERMODYNAMICS) S.D.=  5.88585725621369E+00
DEBUG_STATS_RL:          Salt (THERMODYNAMICS)  min= -2.77555756156289E-17
DEBUG_STATS_RL:          Salt (THERMODYNAMICS)  max=  3.74626851206842E+01
DEBUG_STATS_RL:          Salt (THERMODYNAMICS) mean=  1.88447411912823E+01
DEBUG_STATS_RL:          Salt (THERMODYNAMICS) S.D.=  1.73002896093080E+01
DEBUG_STATS_RL:         GtNm1 (THERMODYNAMICS)  min= -4.27795363460877E-06
DEBUG_STATS_RL:         GtNm1 (THERMODYNAMICS)  max=  2.17607819573880E-06
DEBUG_STATS_RL:         GtNm1 (THERMODYNAMICS) mean=  1.46147427869914E-09
DEBUG_STATS_RL:         GtNm1 (THERMODYNAMICS) S.D.=  1.44420359137781E-07
DEBUG_STATS_RL:         GsNm1 (THERMODYNAMICS)  min= -4.14840699004369E-07
DEBUG_STATS_RL:         GsNm1 (THERMODYNAMICS)  max=  2.69755846796506E-07
DEBUG_STATS_RL:         GsNm1 (THERMODYNAMICS) mean=  4.47768865439210E-11
DEBUG_STATS_RL:         GsNm1 (THERMODYNAMICS) S.D.=  1.38398692865487E-08
DEBUG_STATS_RL:                EtaN (DYNAMICS)  min= -1.88481548852472E+00
DEBUG_STATS_RL:                EtaN (DYNAMICS)  max=  9.14630519544199E-01
DEBUG_STATS_RL:                EtaN (DYNAMICS) mean= -1.87357626579438E-01
DEBUG_STATS_RL:                EtaN (DYNAMICS) S.D.=  7.20940022343446E-01
DEBUG_STATS_RL:                Uvel (DYNAMICS)  min= -1.25133870207805E-01
DEBUG_STATS_RL:                Uvel (DYNAMICS)  max=  1.40510267454616E-01
DEBUG_STATS_RL:                Uvel (DYNAMICS) mean=  6.21619667766733E-03
DEBUG_STATS_RL:                Uvel (DYNAMICS) S.D.=  2.21955523874403E-02
DEBUG_STATS_RL:                Vvel (DYNAMICS)  min= -7.39371360407661E-02
DEBUG_STATS_RL:                Vvel (DYNAMICS)  max=  1.33959907372219E-01
DEBUG_STATS_RL:                Vvel (DYNAMICS) mean=  9.61908662055705E-04
DEBUG_STATS_RL:                Vvel (DYNAMICS) S.D.=  1.32182907468676E-02
DEBUG_STATS_RL:                Wvel (DYNAMICS)  min= -7.11874568349625E-05
DEBUG_STATS_RL:                Wvel (DYNAMICS)  max=  1.67002064194865E-04
DEBUG_STATS_RL:                Wvel (DYNAMICS) mean= -4.12405037699310E-09
DEBUG_STATS_RL:                Wvel (DYNAMICS) S.D.=  9.04083241647956E-06
DEBUG_STATS_RL:               Theta (DYNAMICS)  min= -1.94570479352096E+00
DEBUG_STATS_RL:               Theta (DYNAMICS)  max=  3.09818748789284E+01
DEBUG_STATS_RL:               Theta (DYNAMICS) mean=  3.22143271768979E+00
DEBUG_STATS_RL:               Theta (DYNAMICS) S.D.=  5.88585725621369E+00
DEBUG_STATS_RL:                Salt (DYNAMICS)  min= -2.77555756156289E-17
DEBUG_STATS_RL:                Salt (DYNAMICS)  max=  3.74626851206842E+01
DEBUG_STATS_RL:                Salt (DYNAMICS) mean=  1.88447411912823E+01
DEBUG_STATS_RL:                Salt (DYNAMICS) S.D.=  1.73002896093080E+01
DEBUG_STATS_RL:                  Gu (DYNAMICS)  min= -1.24338835791244E-01
DEBUG_STATS_RL:                  Gu (DYNAMICS)  max=  1.51454770547341E-01
DEBUG_STATS_RL:                  Gu (DYNAMICS) mean=  6.13698889988837E-03
DEBUG_STATS_RL:                  Gu (DYNAMICS) S.D.=  2.25932623676969E-02
DEBUG_STATS_RL:                  Gv (DYNAMICS)  min= -7.27607245549033E-02
DEBUG_STATS_RL:                  Gv (DYNAMICS)  max=  1.33860668090785E-01
DEBUG_STATS_RL:                  Gv (DYNAMICS) mean=  3.60305827358151E-03
DEBUG_STATS_RL:                  Gv (DYNAMICS) S.D.=  1.47079499575804E-02
DEBUG_STATS_RL:               GuNm1 (DYNAMICS)  min= -9.96042431590567E-06
DEBUG_STATS_RL:               GuNm1 (DYNAMICS)  max=  9.25521949335194E-06
DEBUG_STATS_RL:               GuNm1 (DYNAMICS) mean=  7.97231147202398E-09
DEBUG_STATS_RL:               GuNm1 (DYNAMICS) S.D.=  1.21898491548562E-06
DEBUG_STATS_RL:               GvNm1 (DYNAMICS)  min= -9.75370052067512E-06
DEBUG_STATS_RL:               GvNm1 (DYNAMICS)  max=  1.55967494285162E-05
DEBUG_STATS_RL:               GvNm1 (DYNAMICS) mean=  7.36474574399621E-07
DEBUG_STATS_RL:               GvNm1 (DYNAMICS) S.D.=  2.61539819595115E-06
DEBUG_STATS_RL:               GtNm1 (DYNAMICS)  min= -4.27795363460877E-06
DEBUG_STATS_RL:               GtNm1 (DYNAMICS)  max=  2.17607819573880E-06
DEBUG_STATS_RL:               GtNm1 (DYNAMICS) mean=  1.46147427869914E-09
DEBUG_STATS_RL:               GtNm1 (DYNAMICS) S.D.=  1.44420359137781E-07
DEBUG_STATS_RL:               GsNm1 (DYNAMICS)  min= -4.14840699004369E-07
DEBUG_STATS_RL:               GsNm1 (DYNAMICS)  max=  2.69755846796506E-07
DEBUG_STATS_RL:               GsNm1 (DYNAMICS) mean=  4.47768865439210E-11
DEBUG_STATS_RL:               GsNm1 (DYNAMICS) S.D.=  1.38398692865487E-08
DEBUG_STATS_RL:    cg2d_b (SOLVE_FOR_PRESSURE)  min= -2.52423802611745E+04
DEBUG_STATS_RL:    cg2d_b (SOLVE_FOR_PRESSURE)  max=  2.57342682677924E+04
DEBUG_STATS_RL:    cg2d_b (SOLVE_FOR_PRESSURE) mean=  5.18847534679653E+00
DEBUG_STATS_RL:    cg2d_b (SOLVE_FOR_PRESSURE) S.D.=  3.90535896758867E+03
 cg2d: Sum(rhs),rhsMax =   4.66744198935275E-01  1.69029564142014E+00
(PID.TID 0000.0001)  cg2d: iter=     1 ; resid.=  6.16406050402214E-02
(PID.TID 0000.0001)  cg2d: iter=     2 ; resid.=  3.40534854261195E-02
(PID.TID 0000.0001)  cg2d: iter=     3 ; resid.=  2.88139379498659E-02
(PID.TID 0000.0001)  cg2d: iter=     4 ; resid.=  3.07458327614197E-02
(PID.TID 0000.0001)  cg2d: iter=     5 ; resid.=  3.14836102813492E-02
(PID.TID 0000.0001)  cg2d: iter=     6 ; resid.=  2.70409866197272E-02
(PID.TID 0000.0001)  cg2d: iter=     7 ; resid.=  2.30882150817027E-02
(PID.TID 0000.0001)  cg2d: iter=     8 ; resid.=  1.83603819570825E-02
(PID.TID 0000.0001)  cg2d: iter=     9 ; resid.=  1.40455593062494E-02
(PID.TID 0000.0001)  cg2d: iter=    10 ; resid.=  1.12244642540699E-02
(PID.TID 0000.0001)  cg2d: iter=    11 ; resid.=  8.75106472150163E-03
(PID.TID 0000.0001)  cg2d: iter=    12 ; resid.=  7.63920886361918E-03
(PID.TID 0000.0001)  cg2d: iter=    13 ; resid.=  6.35713622882811E-03
(PID.TID 0000.0001)  cg2d: iter=    14 ; resid.=  5.46455430157639E-03
(PID.TID 0000.0001)  cg2d: iter=    15 ; resid.=  4.73263377163877E-03
(PID.TID 0000.0001)  cg2d: iter=    16 ; resid.=  3.90508611383892E-03
(PID.TID 0000.0001)  cg2d: iter=    17 ; resid.=  3.36559149352557E-03
(PID.TID 0000.0001)  cg2d: iter=    18 ; resid.=  2.97182226196484E-03
(PID.TID 0000.0001)  cg2d: iter=    19 ; resid.=  2.49042503912688E-03
(PID.TID 0000.0001)  cg2d: iter=    20 ; resid.=  1.94361439411362E-03
(PID.TID 0000.0001)  cg2d: iter=    21 ; resid.=  1.52377771699790E-03
(PID.TID 0000.0001)  cg2d: iter=    22 ; resid.=  1.25556594478477E-03
(PID.TID 0000.0001)  cg2d: iter=    23 ; resid.=  1.12963632822891E-03
(PID.TID 0000.0001)  cg2d: iter=    24 ; resid.=  9.94651253750156E-04
(PID.TID 0000.0001)  cg2d: iter=    25 ; resid.=  8.56788881693545E-04
(PID.TID 0000.0001)  cg2d: iter=    26 ; resid.=  7.25107561671140E-04
(PID.TID 0000.0001)  cg2d: iter=    27 ; resid.=  5.71007313411604E-04
(PID.TID 0000.0001)  cg2d: iter=    28 ; resid.=  4.67201112789796E-04
(PID.TID 0000.0001)  cg2d: iter=    29 ; resid.=  3.67126234696872E-04
(PID.TID 0000.0001)  cg2d: iter=    30 ; resid.=  3.06247558450712E-04
(PID.TID 0000.0001)  cg2d: iter=    31 ; resid.=  2.58445886186829E-04
(PID.TID 0000.0001)  cg2d: iter=    32 ; resid.=  2.00281225109410E-04
(PID.TID 0000.0001)  cg2d: iter=    33 ; resid.=  1.69690117534726E-04
(PID.TID 0000.0001)  cg2d: iter=    34 ; resid.=  1.35369782717203E-04
(PID.TID 0000.0001)  cg2d: iter=    35 ; resid.=  1.08062133755907E-04
(PID.TID 0000.0001)  cg2d: iter=    36 ; resid.=  9.14637766038859E-05
(PID.TID 0000.0001)  cg2d: iter=    37 ; resid.=  8.42129467782616E-05
(PID.TID 0000.0001)  cg2d: iter=    38 ; resid.=  8.18530803614874E-05
(PID.TID 0000.0001)  cg2d: iter=    39 ; resid.=  7.41404316801295E-05
(PID.TID 0000.0001)  cg2d: iter=    40 ; resid.=  6.31305549469859E-05
(PID.TID 0000.0001)  cg2d: iter=    41 ; resid.=  4.60950496817557E-05
(PID.TID 0000.0001)  cg2d: iter=    42 ; resid.=  3.79146869284732E-05
(PID.TID 0000.0001)  cg2d: iter=    43 ; resid.=  3.25819314733070E-05
(PID.TID 0000.0001)  cg2d: iter=    44 ; resid.=  2.80311063768239E-05
(PID.TID 0000.0001)  cg2d: iter=    45 ; resid.=  2.30269462858790E-05
(PID.TID 0000.0001)  cg2d: iter=    46 ; resid.=  1.82905692278154E-05
(PID.TID 0000.0001)  cg2d: iter=    47 ; resid.=  1.44864631537243E-05
(PID.TID 0000.0001)  cg2d: iter=    48 ; resid.=  1.16632246618123E-05
(PID.TID 0000.0001)  cg2d: iter=    49 ; resid.=  9.95274735029017E-06
(PID.TID 0000.0001)  cg2d: iter=    50 ; resid.=  8.59723993387837E-06
(PID.TID 0000.0001)  cg2d: iter=    51 ; resid.=  7.98084877500368E-06
(PID.TID 0000.0001)  cg2d: iter=    52 ; resid.=  6.96378084737828E-06
(PID.TID 0000.0001)  cg2d: iter=    53 ; resid.=  5.90421829369826E-06
(PID.TID 0000.0001)  cg2d: iter=    54 ; resid.=  4.63381212620721E-06
(PID.TID 0000.0001)  cg2d: iter=    55 ; resid.=  3.66239986597258E-06
(PID.TID 0000.0001)  cg2d: iter=    56 ; resid.=  2.86693434090237E-06
(PID.TID 0000.0001)  cg2d: iter=    57 ; resid.=  2.34343860702777E-06
(PID.TID 0000.0001)  cg2d: iter=    58 ; resid.=  1.90332978291317E-06
(PID.TID 0000.0001)  cg2d: iter=    59 ; resid.=  1.40209554290714E-06
(PID.TID 0000.0001)  cg2d: iter=    60 ; resid.=  9.99433899988929E-07
(PID.TID 0000.0001)  cg2d: iter=    61 ; resid.=  7.70154408626051E-07
(PID.TID 0000.0001)  cg2d: iter=    62 ; resid.=  6.43319987288223E-07
(PID.TID 0000.0001)  cg2d: iter=    63 ; resid.=  5.52055320893991E-07
(PID.TID 0000.0001)  cg2d: iter=    64 ; resid.=  4.54660133238458E-07
(PID.TID 0000.0001)  cg2d: iter=    65 ; resid.=  3.76220166842964E-07
(PID.TID 0000.0001)  cg2d: iter=    66 ; resid.=  3.09107159868794E-07
(PID.TID 0000.0001)  cg2d: iter=    67 ; resid.=  2.59810255442852E-07
(PID.TID 0000.0001)  cg2d: iter=    68 ; resid.=  2.18361047086008E-07
(PID.TID 0000.0001)  cg2d: iter=    69 ; resid.=  1.74362568720103E-07
(PID.TID 0000.0001)  cg2d: iter=    70 ; resid.=  1.47576953970434E-07
(PID.TID 0000.0001)  cg2d: iter=    71 ; resid.=  1.22850038972061E-07
(PID.TID 0000.0001)  cg2d: iter=    72 ; resid.=  1.05560433065971E-07
(PID.TID 0000.0001)  cg2d: iter=    73 ; resid.=  9.05574486908342E-08
(PID.TID 0000.0001)  cg2d: iter=    74 ; resid.=  8.09207288418128E-08
(PID.TID 0000.0001)  cg2d: iter=    75 ; resid.=  6.60387253005772E-08
(PID.TID 0000.0001)  cg2d: iter=    76 ; resid.=  5.49624174703279E-08
(PID.TID 0000.0001)  cg2d: iter=    77 ; resid.=  4.38939305515696E-08
(PID.TID 0000.0001)  cg2d: iter=    78 ; resid.=  3.48661392221755E-08
(PID.TID 0000.0001)  cg2d: iter=    79 ; resid.=  2.64914720784789E-08
(PID.TID 0000.0001)  cg2d: iter=    80 ; resid.=  2.11380389302511E-08
(PID.TID 0000.0001)  cg2d: iter=    81 ; resid.=  1.80192388695417E-08
(PID.TID 0000.0001)  cg2d: iter=    82 ; resid.=  1.37357756976076E-08
(PID.TID 0000.0001)  cg2d: iter=    83 ; resid.=  1.03282849679646E-08
(PID.TID 0000.0001)  cg2d: iter=    84 ; resid.=  7.72285544906699E-09
(PID.TID 0000.0001)  cg2d: iter=    85 ; resid.=  5.29229516409826E-09
(PID.TID 0000.0001)  cg2d: iter=    86 ; resid.=  3.93790061260506E-09
(PID.TID 0000.0001)  cg2d: iter=    87 ; resid.=  3.02501213256969E-09
(PID.TID 0000.0001)  cg2d: iter=    88 ; resid.=  2.34232500707746E-09
(PID.TID 0000.0001)  cg2d: iter=    89 ; resid.=  1.93961777049092E-09
(PID.TID 0000.0001)  cg2d: iter=    90 ; resid.=  1.72429938505662E-09
(PID.TID 0000.0001)  cg2d: iter=    91 ; resid.=  1.52689551064579E-09
(PID.TID 0000.0001)  cg2d: iter=    92 ; resid.=  1.32427213707406E-09
(PID.TID 0000.0001)  cg2d: iter=    93 ; resid.=  1.06257464594435E-09
(PID.TID 0000.0001)  cg2d: iter=    94 ; resid.=  8.66858346359203E-10
(PID.TID 0000.0001)  cg2d: iter=    95 ; resid.=  7.13489079160268E-10
(PID.TID 0000.0001)  cg2d: iter=    96 ; resid.=  5.98592303762486E-10
(PID.TID 0000.0001)  cg2d: iter=    97 ; resid.=  4.79828429005225E-10
(PID.TID 0000.0001)  cg2d: iter=    98 ; resid.=  3.63384756514906E-10
(PID.TID 0000.0001)  cg2d: iter=    99 ; resid.=  2.68670778296201E-10
(PID.TID 0000.0001)  cg2d: iter=   100 ; resid.=  2.22490659350075E-10
(PID.TID 0000.0001)  cg2d: iter=   101 ; resid.=  1.80061800674425E-10
(PID.TID 0000.0001)  cg2d: iter=   102 ; resid.=  1.38865192403409E-10
(PID.TID 0000.0001)  cg2d: iter=   103 ; resid.=  1.01873254635832E-10
(PID.TID 0000.0001)  cg2d: iter=   104 ; resid.=  7.63908667560368E-11
(PID.TID 0000.0001)  cg2d: iter=   105 ; resid.=  5.99734059438079E-11
(PID.TID 0000.0001)  cg2d: iter=   106 ; resid.=  4.98313234969777E-11
(PID.TID 0000.0001)  cg2d: iter=   107 ; resid.=  3.96397811607243E-11
(PID.TID 0000.0001)  cg2d: iter=   108 ; resid.=  3.08492365610536E-11
(PID.TID 0000.0001)  cg2d: iter=   109 ; resid.=  2.30683520140326E-11
(PID.TID 0000.0001)  cg2d: iter=   110 ; resid.=  1.56686747812217E-11
(PID.TID 0000.0001)  cg2d: iter=   111 ; resid.=  1.22090117968646E-11
(PID.TID 0000.0001)  cg2d: iter=   112 ; resid.=  9.40078424275691E-12
(PID.TID 0000.0001)  cg2d: iter=   113 ; resid.=  6.83824500083466E-12
(PID.TID 0000.0001)  cg2d: iter=   114 ; resid.=  4.96021659671927E-12
(PID.TID 0000.0001)  cg2d: iter=   115 ; resid.=  3.40725710340496E-12
(PID.TID 0000.0001)  cg2d: iter=   116 ; resid.=  2.34687177020728E-12
(PID.TID 0000.0001)  cg2d: iter=   117 ; resid.=  1.76140914987559E-12
(PID.TID 0000.0001)  cg2d: iter=   118 ; resid.=  1.28568779893577E-12
(PID.TID 0000.0001)  cg2d: iter=   119 ; resid.=  9.16229779824135E-13
(PID.TID 0000.0001)  cg2d: iter=   120 ; resid.=  6.53572422959997E-13
(PID.TID 0000.0001)  cg2d: iter=   121 ; resid.=  4.78460941535938E-13
(PID.TID 0000.0001)  cg2d: iter=   122 ; resid.=  3.48346398951174E-13
(PID.TID 0000.0001)  cg2d: iter=   123 ; resid.=  2.66353930643419E-13
(PID.TID 0000.0001)  cg2d: iter=   124 ; resid.=  2.23826586223041E-13
(PID.TID 0000.0001)  cg2d: iter=   125 ; resid.=  1.87816353379317E-13
(PID.TID 0000.0001)  cg2d: iter=   126 ; resid.=  1.59651376155839E-13
(PID.TID 0000.0001)  cg2d: iter=   127 ; resid.=  1.21760607894784E-13
(PID.TID 0000.0001)  cg2d: iter=   128 ; resid.=  9.29613968951654E-14
DEBUG_STATS_RL:    cg2d_x (SOLVE_FOR_PRESSURE)  min= -1.84711015193336E+01
DEBUG_STATS_RL:    cg2d_x (SOLVE_FOR_PRESSURE)  max=  8.91660052471051E+00
DEBUG_STATS_RL:    cg2d_x (SOLVE_FOR_PRESSURE) mean= -1.83760325311626E+00
DEBUG_STATS_RL:    cg2d_x (SOLVE_FOR_PRESSURE) S.D.=  7.06528195110914E+00
(PID.TID 0000.0001)      cg2d_init_res =   2.23194422955558E-01
(PID.TID 0000.0001)      cg2d_iters(min,last) =      -1     128
(PID.TID 0000.0001)      cg2d_last_res =   9.29613968951654E-14
(PID.TID 0000.0001) // =======================================================
(PID.TID 0000.0001) // Begin MONITOR dynamic field statistics
(PID.TID 0000.0001) // =======================================================
(PID.TID 0000.0001) %MON time_tsnumber                =                    78
(PID.TID 0000.0001) %MON time_secondsf                =   6.7392000000000E+06
(PID.TID 0000.0001) %MON dynstat_eta_max              =   9.0892971709590E-01
(PID.TID 0000.0001) %MON dynstat_eta_min              =  -1.8828849662929E+00
(PID.TID 0000.0001) %MON dynstat_eta_mean             =  -5.4135306746789E-03
(PID.TID 0000.0001) %MON dynstat_eta_sd               =   6.1922805207194E-01
(PID.TID 0000.0001) %MON dynstat_eta_del2             =   2.4499862431622E-03
(PID.TID 0000.0001) %MON dynstat_uvel_max             =   1.4414690414649E-01
(PID.TID 0000.0001) %MON dynstat_uvel_min             =  -1.2616366618837E-01
(PID.TID 0000.0001) %MON dynstat_uvel_mean            =   2.4993228998109E-03
(PID.TID 0000.0001) %MON dynstat_uvel_sd              =   1.3714989025861E-02
(PID.TID 0000.0001) %MON dynstat_uvel_del2            =   8.2727205226748E-05
(PID.TID 0000.0001) %MON dynstat_vvel_max             =   1.3125283192481E-01
(PID.TID 0000.0001) %MON dynstat_vvel_min             =  -7.4045969103683E-02
(PID.TID 0000.0001) %MON dynstat_vvel_mean            =   1.4409279702104E-05
(PID.TID 0000.0001) %MON dynstat_vvel_sd              =   8.0414733057972E-03
(PID.TID 0000.0001) %MON dynstat_vvel_del2            =   7.1801658160239E-05
(PID.TID 0000.0001) %MON dynstat_wvel_max             =   1.6427678791332E-04
(PID.TID 0000.0001) %MON dynstat_wvel_min             =  -6.9299335233903E-05
(PID.TID 0000.0001) %MON dynstat_wvel_mean            =  -7.0760407094901E-23
(PID.TID 0000.0001) %MON dynstat_wvel_sd              =   1.0079067669321E-05
(PID.TID 0000.0001) %MON dynstat_wvel_del2            =   1.0011389923520E-07
(PID.TID 0000.0001) %MON dynstat_theta_max            =   3.0981874878928E+01
(PID.TID 0000.0001) %MON dynstat_theta_min            =  -1.9457047935210E+00
(PID.TID 0000.0001) %MON dynstat_theta_mean           =   3.6241611822039E+00
(PID.TID 0000.0001) %MON dynstat_theta_sd             =   4.4273968358816E+00
(PID.TID 0000.0001) %MON dynstat_theta_del2           =   4.8467558270957E-03
(PID.TID 0000.0001) %MON dynstat_salt_max             =   3.7462685120684E+01
(PID.TID 0000.0001) %MON dynstat_salt_min             =   2.9910244090153E+01
(PID.TID 0000.0001) %MON dynstat_salt_mean            =   3.4717999097364E+01
(PID.TID 0000.0001) %MON dynstat_salt_sd              =   2.9656035122528E-01
(PID.TID 0000.0001) %MON dynstat_salt_del2            =   9.9075968022804E-04
(PID.TID 0000.0001) %MON dynstat_sst_max              =   3.0981874878928E+01
(PID.TID 0000.0001) %MON dynstat_sst_min              =  -1.9457047935210E+00
(PID.TID 0000.0001) %MON dynstat_sst_mean             =   1.9054955383383E+01
(PID.TID 0000.0001) %MON dynstat_sst_sd               =   9.1626763628043E+00
(PID.TID 0000.0001) %MON dynstat_sst_del2             =   2.8713045823006E-02
(PID.TID 0000.0001) %MON dynstat_sss_max              =   3.7459344835368E+01
(PID.TID 0000.0001) %MON dynstat_sss_min              =   2.9910244090153E+01
(PID.TID 0000.0001) %MON dynstat_sss_mean             =   3.4837417167239E+01
(PID.TID 0000.0001) %MON dynstat_sss_sd               =   9.8595410079911E-01
(PID.TID 0000.0001) %MON dynstat_sss_del2             =   8.1498455069680E-03
(PID.TID 0000.0001) %MON forcing_qnet_max             =   2.6509722086589E+02
(PID.TID 0000.0001) %MON forcing_qnet_min             =  -1.6299959818522E+02
(PID.TID 0000.0001) %MON forcing_qnet_mean            =  -6.4709931322053E+00
(PID.TID 0000.0001) %MON forcing_qnet_sd              =   4.4694693234620E+01
(PID.TID 0000.0001) %MON forcing_qnet_del2            =   8.3727990364500E-01
(PID.TID 0000.0001) %MON forcing_qsw_max              =   0.0000000000000E+00
(PID.TID 0000.0001) %MON forcing_qsw_min              =   0.0000000000000E+00
(PID.TID 0000.0001) %MON forcing_qsw_mean             =   0.0000000000000E+00
(PID.TID 0000.0001) %MON forcing_qsw_sd               =   0.0000000000000E+00
(PID.TID 0000.0001) %MON forcing_qsw_del2             =   0.0000000000000E+00
(PID.TID 0000.0001) %MON forcing_empmr_max            =   6.8916479752564E-05
(PID.TID 0000.0001) %MON forcing_empmr_min            =  -8.3294109742837E-05
(PID.TID 0000.0001) %MON forcing_empmr_mean           =   5.0582032402356E-07
(PID.TID 0000.0001) %MON forcing_empmr_sd             =   2.6146601074219E-05
(PID.TID 0000.0001) %MON forcing_empmr_del2           =   3.6519434745887E-07
(PID.TID 0000.0001) %MON forcing_fu_max               =   3.5583882729212E-01
(PID.TID 0000.0001) %MON forcing_fu_min               =  -3.9042256474495E-01
(PID.TID 0000.0001) %MON forcing_fu_mean              =   2.0202345106522E-02
(PID.TID 0000.0001) %MON forcing_fu_sd                =   1.0159012040920E-01
(PID.TID 0000.0001) %MON forcing_fu_del2              =   8.3058122505654E-04
(PID.TID 0000.0001) %MON forcing_fv_max               =   1.8310834368070E-01
(PID.TID 0000.0001) %MON forcing_fv_min               =  -1.8651620348295E-01
(PID.TID 0000.0001) %MON forcing_fv_mean              =  -7.4566220952985E-03
(PID.TID 0000.0001) %MON forcing_fv_sd                =   4.1854188278217E-02
(PID.TID 0000.0001) %MON forcing_fv_del2              =   4.8859436838041E-04
(PID.TID 0000.0001) %MON trAdv_CFL_u_max              =   4.4705118404521E-02
(PID.TID 0000.0001) %MON trAdv_CFL_v_max              =   2.5920204020960E-02
(PID.TID 0000.0001) %MON trAdv_CFL_w_max              =   3.6997380375478E-02
(PID.TID 0000.0001) %MON advcfl_uvel_max              =   4.3151083645083E-02
(PID.TID 0000.0001) %MON advcfl_vvel_max              =   2.5500320200647E-02
(PID.TID 0000.0001) %MON advcfl_wvel_max              =   3.8886341029346E-02
(PID.TID 0000.0001) %MON advcfl_W_hf_max              =   4.1745630810915E-02
(PID.TID 0000.0001) %MON pe_b_mean                    =   4.9069952379266E-04
(PID.TID 0000.0001) %MON ke_max                       =   1.1041584354785E-02
(PID.TID 0000.0001) %MON ke_mean                      =   1.1732620592277E-04
(PID.TID 0000.0001) %MON ke_vol                       =   1.3226782436723E+18
(PID.TID 0000.0001) %MON vort_r_min                   =  -3.4986066910401E-07
(PID.TID 0000.0001) %MON vort_r_max                   =   3.9559610122985E-07
(PID.TID 0000.0001) %MON vort_a_mean                  =  -2.5274807032236E-05
(PID.TID 0000.0001) %MON vort_a_sd                    =   7.3604689091369E-05
(PID.TID 0000.0001) %MON vort_p_mean                  =  -3.1845655339309E-05
(PID.TID 0000.0001) %MON vort_p_sd                    =   1.3162484658265E-04
(PID.TID 0000.0001) %MON surfExpan_theta_mean         =   6.7535546468179E-08
(PID.TID 0000.0001) %MON surfExpan_salt_mean          =   3.9461668668668E-08
(PID.TID 0000.0001) // =======================================================
(PID.TID 0000.0001) // End MONITOR dynamic field statistics
(PID.TID 0000.0001) // =======================================================
 EXTERNAL_FIELDS_LOAD,        78 : iP,iLd,i0,i1=    3    4    3    4 ; Wght=  0.9000000000  0.1000000000
 EXTERNAL_FIELDS_LOAD: (fu0,1),fu,fv= -2.7199E-02 -3.7252E-02 -2.8204E-02 -4.0419E-03
 EXTERNAL_FIELDS_LOAD: SST,SSS,Q,E-P= -1.6198E-01  3.4578E+01  2.0427E+02  8.9496E-06
DEBUG_STATS_RL:          Uvel (THERMODYNAMICS)  min= -1.26163666188371E-01
DEBUG_STATS_RL:          Uvel (THERMODYNAMICS)  max=  1.44146904146489E-01
DEBUG_STATS_RL:          Uvel (THERMODYNAMICS) mean=  6.22686927737191E-03
DEBUG_STATS_RL:          Uvel (THERMODYNAMICS) S.D.=  2.22020710422341E-02
DEBUG_STATS_RL:          Vvel (THERMODYNAMICS)  min= -7.40459691036825E-02
DEBUG_STATS_RL:          Vvel (THERMODYNAMICS)  max=  1.31252831924810E-01
DEBUG_STATS_RL:          Vvel (THERMODYNAMICS) mean=  9.96883948125062E-04
DEBUG_STATS_RL:          Vvel (THERMODYNAMICS) S.D.=  1.31853864070619E-02
DEBUG_STATS_RL:          Wvel (THERMODYNAMICS)  min= -6.92993352339033E-05
DEBUG_STATS_RL:          Wvel (THERMODYNAMICS)  max=  1.64276787913323E-04
DEBUG_STATS_RL:          Wvel (THERMODYNAMICS) mean=  1.86227460466577E-09
DEBUG_STATS_RL:          Wvel (THERMODYNAMICS) S.D.=  8.96787268044530E-06
DEBUG_STATS_RL:         Theta (THERMODYNAMICS)  min= -1.94465273527749E+00
DEBUG_STATS_RL:         Theta (THERMODYNAMICS)  max=  3.10059018462848E+01
DEBUG_STATS_RL:         Theta (THERMODYNAMICS) mean=  3.22143981301183E+00
DEBUG_STATS_RL:         Theta (THERMODYNAMICS) S.D.=  5.88627455074346E+00
DEBUG_STATS_RL:          Salt (THERMODYNAMICS)  min= -2.77555756156289E-17
DEBUG_STATS_RL:          Salt (THERMODYNAMICS)  max=  3.74623091787848E+01
DEBUG_STATS_RL:          Salt (THERMODYNAMICS) mean=  1.88447467360705E+01
DEBUG_STATS_RL:          Salt (THERMODYNAMICS) S.D.=  1.73002954327595E+01
DEBUG_STATS_RL:         GtNm1 (THERMODYNAMICS)  min= -4.29539016449168E-06
DEBUG_STATS_RL:         GtNm1 (THERMODYNAMICS)  max=  2.20571032629757E-06
DEBUG_STATS_RL:         GtNm1 (THERMODYNAMICS) mean=  1.10347904611619E-09
DEBUG_STATS_RL:         GtNm1 (THERMODYNAMICS) S.D.=  1.45030639254100E-07
DEBUG_STATS_RL:         GsNm1 (THERMODYNAMICS)  min= -4.51168421047299E-07
DEBUG_STATS_RL:         GsNm1 (THERMODYNAMICS)  max=  3.41388135303020E-07
DEBUG_STATS_RL:         GsNm1 (THERMODYNAMICS) mean=  5.00421523620250E-11
DEBUG_STATS_RL:         GsNm1 (THERMODYNAMICS) S.D.=  1.42290084800413E-08
DEBUG_STATS_RL:                EtaN (DYNAMICS)  min= -1.88288496629289E+00
DEBUG_STATS_RL:                EtaN (DYNAMICS)  max=  9.08929717095903E-01
DEBUG_STATS_RL:                EtaN (DYNAMICS) mean= -1.87319393793708E-01
DEBUG_STATS_RL:                EtaN (DYNAMICS) S.D.=  7.20212227432133E-01
DEBUG_STATS_RL:                Uvel (DYNAMICS)  min= -1.26163666188371E-01
DEBUG_STATS_RL:                Uvel (DYNAMICS)  max=  1.44146904146489E-01
DEBUG_STATS_RL:                Uvel (DYNAMICS) mean=  6.22686927737191E-03
DEBUG_STATS_RL:                Uvel (DYNAMICS) S.D.=  2.22020710422341E-02
DEBUG_STATS_RL:                Vvel (DYNAMICS)  min= -7.40459691036825E-02
DEBUG_STATS_RL:                Vvel (DYNAMICS)  max=  1.31252831924810E-01
DEBUG_STATS_RL:                Vvel (DYNAMICS) mean=  9.96883948125062E-04
DEBUG_STATS_RL:                Vvel (DYNAMICS) S.D.=  1.31853864070619E-02
DEBUG_STATS_RL:                Wvel (DYNAMICS)  min= -6.92993352339033E-05
DEBUG_STATS_RL:                Wvel (DYNAMICS)  max=  1.64276787913323E-04
DEBUG_STATS_RL:                Wvel (DYNAMICS) mean=  1.86227460466577E-09
DEBUG_STATS_RL:                Wvel (DYNAMICS) S.D.=  8.96787268044530E-06
DEBUG_STATS_RL:               Theta (DYNAMICS)  min= -1.94465273527749E+00
DEBUG_STATS_RL:               Theta (DYNAMICS)  max=  3.10059018462848E+01
DEBUG_STATS_RL:               Theta (DYNAMICS) mean=  3.22143981301183E+00
DEBUG_STATS_RL:               Theta (DYNAMICS) S.D.=  5.88627455074346E+00
DEBUG_STATS_RL:                Salt (DYNAMICS)  min= -2.77555756156289E-17
DEBUG_STATS_RL:                Salt (DYNAMICS)  max=  3.74623091787848E+01
DEBUG_STATS_RL:                Salt (DYNAMICS) mean=  1.88447467360705E+01
DEBUG_STATS_RL:                Salt (DYNAMICS) S.D.=  1.73002954327595E+01
DEBUG_STATS_RL:                  Gu (DYNAMICS)  min= -1.25340466519318E-01
DEBUG_STATS_RL:                  Gu (DYNAMICS)  max=  1.54014749730108E-01
DEBUG_STATS_RL:                  Gu (DYNAMICS) mean=  6.14043048532417E-03
DEBUG_STATS_RL:                  Gu (DYNAMICS) S.D.=  2.25785763530656E-02
DEBUG_STATS_RL:                  Gv (DYNAMICS)  min= -7.26525919466356E-02
DEBUG_STATS_RL:                  Gv (DYNAMICS)  max=  1.31137350012923E-01
DEBUG_STATS_RL:                  Gv (DYNAMICS) mean=  3.63757925961799E-03
DEBUG_STATS_RL:                  Gv (DYNAMICS) S.D.=  1.47039558500491E-02
DEBUG_STATS_RL:               GuNm1 (DYNAMICS)  min= -9.93952658566171E-06
DEBUG_STATS_RL:               GuNm1 (DYNAMICS)  max=  9.25879665886957E-06
DEBUG_STATS_RL:               GuNm1 (DYNAMICS) mean=  8.10362018405635E-09
DEBUG_STATS_RL:               GuNm1 (DYNAMICS) S.D.=  1.21911931763452E-06
DEBUG_STATS_RL:               GvNm1 (DYNAMICS)  min= -9.70942161366887E-06
DEBUG_STATS_RL:               GvNm1 (DYNAMICS)  max=  1.55802761163246E-05
DEBUG_STATS_RL:               GvNm1 (DYNAMICS) mean=  7.36752790248262E-07
DEBUG_STATS_RL:               GvNm1 (DYNAMICS) S.D.=  2.61400782306728E-06
DEBUG_STATS_RL:               GtNm1 (DYNAMICS)  min= -4.29539016449168E-06
DEBUG_STATS_RL:               GtNm1 (DYNAMICS)  max=  2.20571032629757E-06
DEBUG_STATS_RL:               GtNm1 (DYNAMICS) mean=  1.10347904611619E-09
DEBUG_STATS_RL:               GtNm1 (DYNAMICS) S.D.=  1.45030639254100E-07
DEBUG_STATS_RL:               GsNm1 (DYNAMICS)  min= -4.51168421047299E-07
DEBUG_STATS_RL:               GsNm1 (DYNAMICS)  max=  3.41388135303020E-07
DEBUG_STATS_RL:               GsNm1 (DYNAMICS) mean=  5.00421523620250E-11
DEBUG_STATS_RL:               GsNm1 (DYNAMICS) S.D.=  1.42290084800413E-08
DEBUG_STATS_RL:    cg2d_b (SOLVE_FOR_PRESSURE)  min= -2.54244971916565E+04
DEBUG_STATS_RL:    cg2d_b (SOLVE_FOR_PRESSURE)  max=  2.60765368834711E+04
DEBUG_STATS_RL:    cg2d_b (SOLVE_FOR_PRESSURE) mean=  5.22714913341153E+00
DEBUG_STATS_RL:    cg2d_b (SOLVE_FOR_PRESSURE) S.D.=  3.90670136066816E+03
 cg2d: Sum(rhs),rhsMax =   4.64051277127882E-01  1.71277676049671E+00
(PID.TID 0000.0001)  cg2d: iter=     1 ; resid.=  5.95190235233498E-02
(PID.TID 0000.0001)  cg2d: iter=     2 ; resid.=  3.17284924015933E-02
(PID.TID 0000.0001)  cg2d: iter=     3 ; resid.=  2.47973394450047E-02
(PID.TID 0000.0001)  cg2d: iter=     4 ; resid.=  2.53886367618443E-02
(PID.TID 0000.0001)  cg2d: iter=     5 ; resid.=  2.57568286866321E-02
(PID.TID 0000.0001)  cg2d: iter=     6 ; resid.=  2.24360289364578E-02
(PID.TID 0000.0001)  cg2d: iter=     7 ; resid.=  1.98553160703116E-02
(PID.TID 0000.0001)  cg2d: iter=     8 ; resid.=  1.64834203566461E-02
(PID.TID 0000.0001)  cg2d: iter=     9 ; resid.=  1.28137394226261E-02
(PID.TID 0000.0001)  cg2d: iter=    10 ; resid.=  1.03319709650648E-02
(PID.TID 0000.0001)  cg2d: iter=    11 ; resid.=  8.07530595128983E-03
(PID.TID 0000.0001)  cg2d: iter=    12 ; resid.=  7.03469004418749E-03
(PID.TID 0000.0001)  cg2d: iter=    13 ; resid.=  5.84236909107039E-03
(PID.TID 0000.0001)  cg2d: iter=    14 ; resid.=  4.98046366664775E-03
(PID.TID 0000.0001)  cg2d: iter=    15 ; resid.=  4.29920745727190E-03
(PID.TID 0000.0001)  cg2d: iter=    16 ; resid.=  3.48937069882070E-03
(PID.TID 0000.0001)  cg2d: iter=    17 ; resid.=  2.98548865640157E-03
(PID.TID 0000.0001)  cg2d: iter=    18 ; resid.=  2.62176035387008E-03
(PID.TID 0000.0001)  cg2d: iter=    19 ; resid.=  2.22646387539455E-03
(PID.TID 0000.0001)  cg2d: iter=    20 ; resid.=  1.73167203940696E-03
(PID.TID 0000.0001)  cg2d: iter=    21 ; resid.=  1.33815719238888E-03
(PID.TID 0000.0001)  cg2d: iter=    22 ; resid.=  1.10100906593142E-03
(PID.TID 0000.0001)  cg2d: iter=    23 ; resid.=  9.84655197566027E-04
(PID.TID 0000.0001)  cg2d: iter=    24 ; resid.=  8.66872604626318E-04
(PID.TID 0000.0001)  cg2d: iter=    25 ; resid.=  7.58003621152606E-04
(PID.TID 0000.0001)  cg2d: iter=    26 ; resid.=  6.51350867677730E-04
(PID.TID 0000.0001)  cg2d: iter=    27 ; resid.=  5.31144896519486E-04
(PID.TID 0000.0001)  cg2d: iter=    28 ; resid.=  4.39738062482328E-04
(PID.TID 0000.0001)  cg2d: iter=    29 ; resid.=  3.48475234928090E-04
(PID.TID 0000.0001)  cg2d: iter=    30 ; resid.=  2.91554911628810E-04
(PID.TID 0000.0001)  cg2d: iter=    31 ; resid.=  2.43508185658519E-04
(PID.TID 0000.0001)  cg2d: iter=    32 ; resid.=  1.87181705357963E-04
(PID.TID 0000.0001)  cg2d: iter=    33 ; resid.=  1.56080575155009E-04
(PID.TID 0000.0001)  cg2d: iter=    34 ; resid.=  1.22174990472261E-04
(PID.TID 0000.0001)  cg2d: iter=    35 ; resid.=  9.57935661311450E-05
(PID.TID 0000.0001)  cg2d: iter=    36 ; resid.=  7.87363081367650E-05
(PID.TID 0000.0001)  cg2d: iter=    37 ; resid.=  7.15863394600628E-05
(PID.TID 0000.0001)  cg2d: iter=    38 ; resid.=  6.96945474195505E-05
(PID.TID 0000.0001)  cg2d: iter=    39 ; resid.=  6.41459776596925E-05
(PID.TID 0000.0001)  cg2d: iter=    40 ; resid.=  5.64327958605662E-05
(PID.TID 0000.0001)  cg2d: iter=    41 ; resid.=  4.23972524482413E-05
(PID.TID 0000.0001)  cg2d: iter=    42 ; resid.=  3.53008513786049E-05
(PID.TID 0000.0001)  cg2d: iter=    43 ; resid.=  2.99271919054792E-05
(PID.TID 0000.0001)  cg2d: iter=    44 ; resid.=  2.56365003616708E-05
(PID.TID 0000.0001)  cg2d: iter=    45 ; resid.=  2.12334164967794E-05
(PID.TID 0000.0001)  cg2d: iter=    46 ; resid.=  1.66834245013941E-05
(PID.TID 0000.0001)  cg2d: iter=    47 ; resid.=  1.29981696587664E-05
(PID.TID 0000.0001)  cg2d: iter=    48 ; resid.=  1.02863757296395E-05
(PID.TID 0000.0001)  cg2d: iter=    49 ; resid.=  8.71182991145364E-06
(PID.TID 0000.0001)  cg2d: iter=    50 ; resid.=  7.47777433331574E-06
(PID.TID 0000.0001)  cg2d: iter=    51 ; resid.=  6.89173071891072E-06
(PID.TID 0000.0001)  cg2d: iter=    52 ; resid.=  6.08166222840991E-06
(PID.TID 0000.0001)  cg2d: iter=    53 ; resid.=  5.20232318395243E-06
(PID.TID 0000.0001)  cg2d: iter=    54 ; resid.=  4.12114385834567E-06
(PID.TID 0000.0001)  cg2d: iter=    55 ; resid.=  3.25884260116238E-06
(PID.TID 0000.0001)  cg2d: iter=    56 ; resid.=  2.53689022143322E-06
(PID.TID 0000.0001)  cg2d: iter=    57 ; resid.=  2.07092939133257E-06
(PID.TID 0000.0001)  cg2d: iter=    58 ; resid.=  1.66960310532875E-06
(PID.TID 0000.0001)  cg2d: iter=    59 ; resid.=  1.23519396733628E-06
(PID.TID 0000.0001)  cg2d: iter=    60 ; resid.=  8.90432444764875E-07
(PID.TID 0000.0001)  cg2d: iter=    61 ; resid.=  6.84990955068961E-07
(PID.TID 0000.0001)  cg2d: iter=    62 ; resid.=  5.66739728623165E-07
(PID.TID 0000.0001)  cg2d: iter=    63 ; resid.=  4.75089875424711E-07
(PID.TID 0000.0001)  cg2d: iter=    64 ; resid.=  3.81482984530411E-07
(PID.TID 0000.0001)  cg2d: iter=    65 ; resid.=  3.13284825307272E-07
(PID.TID 0000.0001)  cg2d: iter=    66 ; resid.=  2.54638793098047E-07
(PID.TID 0000.0001)  cg2d: iter=    67 ; resid.=  2.14364981962727E-07
(PID.TID 0000.0001)  cg2d: iter=    68 ; resid.=  1.83249912567525E-07
(PID.TID 0000.0001)  cg2d: iter=    69 ; resid.=  1.46342597681849E-07
(PID.TID 0000.0001)  cg2d: iter=    70 ; resid.=  1.21916575654327E-07
(PID.TID 0000.0001)  cg2d: iter=    71 ; resid.=  9.94336245217309E-08
(PID.TID 0000.0001)  cg2d: iter=    72 ; resid.=  8.47242042306537E-08
(PID.TID 0000.0001)  cg2d: iter=    73 ; resid.=  7.24254848256528E-08
(PID.TID 0000.0001)  cg2d: iter=    74 ; resid.=  6.48917352370951E-08
(PID.TID 0000.0001)  cg2d: iter=    75 ; resid.=  5.40160520690435E-08
(PID.TID 0000.0001)  cg2d: iter=    76 ; resid.=  4.57509037769004E-08
(PID.TID 0000.0001)  cg2d: iter=    77 ; resid.=  3.70349047390514E-08
(PID.TID 0000.0001)  cg2d: iter=    78 ; resid.=  3.02283362933443E-08
(PID.TID 0000.0001)  cg2d: iter=    79 ; resid.=  2.34311043294235E-08
(PID.TID 0000.0001)  cg2d: iter=    80 ; resid.=  1.90552349573510E-08
(PID.TID 0000.0001)  cg2d: iter=    81 ; resid.=  1.62614031174909E-08
(PID.TID 0000.0001)  cg2d: iter=    82 ; resid.=  1.23421747253621E-08
(PID.TID 0000.0001)  cg2d: iter=    83 ; resid.=  9.34051998049238E-09
(PID.TID 0000.0001)  cg2d: iter=    84 ; resid.=  6.98688008915959E-09
(PID.TID 0000.0001)  cg2d: iter=    85 ; resid.=  4.86375227373829E-09
(PID.TID 0000.0001)  cg2d: iter=    86 ; resid.=  3.67209671766430E-09
(PID.TID 0000.0001)  cg2d: iter=    87 ; resid.=  2.82433874434133E-09
(PID.TID 0000.0001)  cg2d: iter=    88 ; resid.=  2.15341307815780E-09
(PID.TID 0000.0001)  cg2d: iter=    89 ; resid.=  1.75333437541014E-09
(PID.TID 0000.0001)  cg2d: iter=    90 ; resid.=  1.53864797169903E-09
(PID.TID 0000.0001)  cg2d: iter=    91 ; resid.=  1.35043876476356E-09
(PID.TID 0000.0001)  cg2d: iter=    92 ; resid.=  1.18136193389739E-09
(PID.TID 0000.0001)  cg2d: iter=    93 ; resid.=  9.51604210732734E-10
(PID.TID 0000.0001)  cg2d: iter=    94 ; resid.=  7.72051806293845E-10
(PID.TID 0000.0001)  cg2d: iter=    95 ; resid.=  6.45680699382402E-10
(PID.TID 0000.0001)  cg2d: iter=    96 ; resid.=  5.41007376216465E-10
(PID.TID 0000.0001)  cg2d: iter=    97 ; resid.=  4.35203729641361E-10
(PID.TID 0000.0001)  cg2d: iter=    98 ; resid.=  3.30538435054687E-10
(PID.TID 0000.0001)  cg2d: iter=    99 ; resid.=  2.44077131924799E-10
(PID.TID 0000.0001)  cg2d: iter=   100 ; resid.=  2.04504357224608E-10
(PID.TID 0000.0001)  cg2d: iter=   101 ; resid.=  1.67328404207507E-10
(PID.TID 0000.0001)  cg2d: iter=   102 ; resid.=  1.29500876265086E-10
(PID.TID 0000.0001)  cg2d: iter=   103 ; resid.=  9.38861624696251E-11
(PID.TID 0000.0001)  cg2d: iter=   104 ; resid.=  7.01525128767905E-11
(PID.TID 0000.0001)  cg2d: iter=   105 ; resid.=  5.49965228714416E-11
(PID.TID 0000.0001)  cg2d: iter=   106 ; resid.=  4.51524436022488E-11
(PID.TID 0000.0001)  cg2d: iter=   107 ; resid.=  3.63791179168575E-11
(PID.TID 0000.0001)  cg2d: iter=   108 ; resid.=  2.90443057281470E-11
(PID.TID 0000.0001)  cg2d: iter=   109 ; resid.=  2.21824320021417E-11
(PID.TID 0000.0001)  cg2d: iter=   110 ; resid.=  1.53646134230570E-11
(PID.TID 0000.0001)  cg2d: iter=   111 ; resid.=  1.20818671467031E-11
(PID.TID 0000.0001)  cg2d: iter=   112 ; resid.=  9.50559167245717E-12
(PID.TID 0000.0001)  cg2d: iter=   113 ; resid.=  7.00860329447531E-12
(PID.TID 0000.0001)  cg2d: iter=   114 ; resid.=  5.06725745935220E-12
(PID.TID 0000.0001)  cg2d: iter=   115 ; resid.=  3.54171641039240E-12
(PID.TID 0000.0001)  cg2d: iter=   116 ; resid.=  2.46568242500954E-12
(PID.TID 0000.0001)  cg2d: iter=   117 ; resid.=  1.85704950407202E-12
(PID.TID 0000.0001)  cg2d: iter=   118 ; resid.=  1.37271629227691E-12
(PID.TID 0000.0001)  cg2d: iter=   119 ; resid.=  9.96157821196616E-13
(PID.TID 0000.0001)  cg2d: iter=   120 ; resid.=  7.39964452611860E-13
(PID.TID 0000.0001)  cg2d: iter=   121 ; resid.=  5.72572228389626E-13
(PID.TID 0000.0001)  cg2d: iter=   122 ; resid.=  4.48565522910309E-13
(PID.TID 0000.0001)  cg2d: iter=   123 ; resid.=  3.69243018383020E-13
(PID.TID 0000.0001)  cg2d: iter=   124 ; resid.=  3.20494672833728E-13
(PID.TID 0000.0001)  cg2d: iter=   125 ; resid.=  2.63248044936804E-13
(PID.TID 0000.0001)  cg2d: iter=   126 ; resid.=  2.16347985684517E-13
(PID.TID 0000.0001)  cg2d: iter=   127 ; resid.=  1.59353868479717E-13
(PID.TID 0000.0001)  cg2d: iter=   128 ; resid.=  1.19123005191985E-13
(PID.TID 0000.0001)  cg2d: iter=   129 ; resid.=  8.30062140492998E-14
DEBUG_STATS_RL:    cg2d_x (SOLVE_FOR_PRESSURE)  min= -1.84490755133630E+01
DEBUG_STATS_RL:    cg2d_x (SOLVE_FOR_PRESSURE)  max=  8.87068630236239E+00
DEBUG_STATS_RL:    cg2d_x (SOLVE_FOR_PRESSURE) mean= -1.83810953189068E+00
DEBUG_STATS_RL:    cg2d_x (SOLVE_FOR_PRESSURE) S.D.=  7.06285473256197E+00
(PID.TID 0000.0001)      cg2d_init_res =   2.16982051473557E-01
(PID.TID 0000.0001)      cg2d_iters(min,last) =      -1     129
(PID.TID 0000.0001)      cg2d_last_res =   8.30062140492998E-14
(PID.TID 0000.0001) // =======================================================
(PID.TID 0000.0001) // Begin MONITOR dynamic field statistics
(PID.TID 0000.0001) // =======================================================
(PID.TID 0000.0001) %MON time_tsnumber                =                    79
(PID.TID 0000.0001) %MON time_secondsf                =   6.8256000000000E+06
(PID.TID 0000.0001) %MON dynstat_eta_max              =   9.0424936823261E-01
(PID.TID 0000.0001) %MON dynstat_eta_min              =  -1.8806397057455E+00
(PID.TID 0000.0001) %MON dynstat_eta_mean             =  -5.4538819756202E-03
(PID.TID 0000.0001) %MON dynstat_eta_sd               =   6.1856736589134E-01
(PID.TID 0000.0001) %MON dynstat_eta_del2             =   2.4536407635259E-03
(PID.TID 0000.0001) %MON dynstat_uvel_max             =   1.4668606388120E-01
(PID.TID 0000.0001) %MON dynstat_uvel_min             =  -1.2712037400594E-01
(PID.TID 0000.0001) %MON dynstat_uvel_mean            =   2.5299671140591E-03
(PID.TID 0000.0001) %MON dynstat_uvel_sd              =   1.3741581685567E-02
(PID.TID 0000.0001) %MON dynstat_uvel_del2            =   8.2840826414938E-05
(PID.TID 0000.0001) %MON dynstat_vvel_max             =   1.2828990047837E-01
(PID.TID 0000.0001) %MON dynstat_vvel_min             =  -7.5545430018550E-02
(PID.TID 0000.0001) %MON dynstat_vvel_mean            =   1.1596458395190E-05
(PID.TID 0000.0001) %MON dynstat_vvel_sd              =   8.0112752696038E-03
(PID.TID 0000.0001) %MON dynstat_vvel_del2            =   7.1690904824285E-05
(PID.TID 0000.0001) %MON dynstat_wvel_max             =   1.6044266932372E-04
(PID.TID 0000.0001) %MON dynstat_wvel_min             =  -6.7265056626358E-05
(PID.TID 0000.0001) %MON dynstat_wvel_mean            =   6.9177759415955E-23
(PID.TID 0000.0001) %MON dynstat_wvel_sd              =   9.9854374725923E-06
(PID.TID 0000.0001) %MON dynstat_wvel_del2            =   9.9377487002225E-08
(PID.TID 0000.0001) %MON dynstat_theta_max            =   3.1005901846285E+01
(PID.TID 0000.0001) %MON dynstat_theta_min            =  -1.9446527352775E+00
(PID.TID 0000.0001) %MON dynstat_theta_mean           =   3.6241925568537E+00
(PID.TID 0000.0001) %MON dynstat_theta_sd             =   4.4275659808575E+00
(PID.TID 0000.0001) %MON dynstat_theta_del2           =   4.8451199192373E-03
(PID.TID 0000.0001) %MON dynstat_salt_max             =   3.7462309178785E+01
(PID.TID 0000.0001) %MON dynstat_salt_min             =   2.9912951810218E+01
(PID.TID 0000.0001) %MON dynstat_salt_mean            =   3.4717998930652E+01
(PID.TID 0000.0001) %MON dynstat_salt_sd              =   2.9656667510133E-01
(PID.TID 0000.0001) %MON dynstat_salt_del2            =   9.9151743660900E-04
(PID.TID 0000.0001) %MON dynstat_sst_max              =   3.1005901846285E+01
(PID.TID 0000.0001) %MON dynstat_sst_min              =  -1.9446527352775E+00
(PID.TID 0000.0001) %MON dynstat_sst_mean             =   1.9056084751649E+01
(PID.TID 0000.0001) %MON dynstat_sst_sd               =   9.1700209608208E+00
(PID.TID 0000.0001) %MON dynstat_sst_del2             =   2.8776086553863E-02
(PID.TID 0000.0001) %MON dynstat_sss_max              =   3.7460084138997E+01
(PID.TID 0000.0001) %MON dynstat_sss_min              =   2.9912951810218E+01
(PID.TID 0000.0001) %MON dynstat_sss_mean             =   3.4837415446070E+01
(PID.TID 0000.0001) %MON dynstat_sss_sd               =   9.8630184255218E-01
(PID.TID 0000.0001) %MON dynstat_sss_del2             =   8.1644640723867E-03
(PID.TID 0000.0001) %MON forcing_qnet_max             =   2.6039198608398E+02
(PID.TID 0000.0001) %MON forcing_qnet_min             =  -1.6257160186768E+02
(PID.TID 0000.0001) %MON forcing_qnet_mean            =  -6.0739567032357E+00
(PID.TID 0000.0001) %MON forcing_qnet_sd              =   4.3878157361251E+01
(PID.TID 0000.0001) %MON forcing_qnet_del2            =   8.3036174391227E-01
(PID.TID 0000.0001) %MON forcing_qsw_max              =   0.0000000000000E+00
(PID.TID 0000.0001) %MON forcing_qsw_min              =   0.0000000000000E+00
(PID.TID 0000.0001) %MON forcing_qsw_mean             =   0.0000000000000E+00
(PID.TID 0000.0001) %MON forcing_qsw_sd               =   0.0000000000000E+00
(PID.TID 0000.0001) %MON forcing_qsw_del2             =   0.0000000000000E+00
(PID.TID 0000.0001) %MON forcing_empmr_max            =   6.8820308740669E-05
(PID.TID 0000.0001) %MON forcing_empmr_min            =  -8.3308955822758E-05
(PID.TID 0000.0001) %MON forcing_empmr_mean           =   4.8337495919599E-07
(PID.TID 0000.0001) %MON forcing_empmr_sd             =   2.6080704866784E-05
(PID.TID 0000.0001) %MON forcing_empmr_del2           =   3.6465436122131E-07
(PID.TID 0000.0001) %MON forcing_fu_max               =   3.5498254299164E-01
(PID.TID 0000.0001) %MON forcing_fu_min               =  -3.9135563671589E-01
(PID.TID 0000.0001) %MON forcing_fu_mean              =   2.0075153009589E-02
(PID.TID 0000.0001) %MON forcing_fu_sd                =   1.0135250681503E-01
(PID.TID 0000.0001) %MON forcing_fu_del2              =   8.2249085228600E-04
(PID.TID 0000.0001) %MON forcing_fv_max               =   1.8301234245300E-01
(PID.TID 0000.0001) %MON forcing_fv_min               =  -1.8310849070549E-01
(PID.TID 0000.0001) %MON forcing_fv_mean              =  -7.4201454229255E-03
(PID.TID 0000.0001) %MON forcing_fv_sd                =   4.1471021405543E-02
(PID.TID 0000.0001) %MON forcing_fv_del2              =   4.7971991302382E-04
(PID.TID 0000.0001) %MON trAdv_CFL_u_max              =   4.3159847938793E-02
(PID.TID 0000.0001) %MON trAdv_CFL_v_max              =   2.5396405899019E-02
(PID.TID 0000.0001) %MON trAdv_CFL_w_max              =   3.6393626860798E-02
(PID.TID 0000.0001) %MON advcfl_uvel_max              =   4.1509014827549E-02
(PID.TID 0000.0001) %MON advcfl_vvel_max              =   2.4924670140311E-02
(PID.TID 0000.0001) %MON advcfl_wvel_max              =   3.7978757889232E-02
(PID.TID 0000.0001) %MON advcfl_W_hf_max              =   4.0771313616382E-02
(PID.TID 0000.0001) %MON pe_b_mean                    =   4.8965361851194E-04
(PID.TID 0000.0001) %MON ke_max                       =   1.1127001889613E-02
(PID.TID 0000.0001) %MON ke_mean                      =   1.1751027595342E-04
(PID.TID 0000.0001) %MON ke_vol                       =   1.3226782436723E+18
(PID.TID 0000.0001) %MON vort_r_min                   =  -3.5738159204770E-07
(PID.TID 0000.0001) %MON vort_r_max                   =   3.9294727496353E-07
(PID.TID 0000.0001) %MON vort_a_mean                  =  -2.5274807028033E-05
(PID.TID 0000.0001) %MON vort_a_sd                    =   7.3604694715456E-05
(PID.TID 0000.0001) %MON vort_p_mean                  =  -3.1845655334015E-05
(PID.TID 0000.0001) %MON vort_p_sd                    =   1.3162483173780E-04
(PID.TID 0000.0001) %MON surfExpan_theta_mean         =   9.0429240088762E-08
(PID.TID 0000.0001) %MON surfExpan_salt_mean          =   3.2413367355966E-08
(PID.TID 0000.0001) // =======================================================
(PID.TID 0000.0001) // End MONITOR dynamic field statistics
(PID.TID 0000.0001) // =======================================================
 EXTERNAL_FIELDS_LOAD,        79 : iP,iLd,i0,i1=    3    4    3    4 ; Wght=  0.8666666667  0.1333333333
 EXTERNAL_FIELDS_LOAD: (fu0,1),fu,fv= -2.7199E-02 -3.7252E-02 -2.8539E-02 -5.1965E-03
 EXTERNAL_FIELDS_LOAD: SST,SSS,Q,E-P= -1.5467E-01  3.4578E+01  2.0056E+02  8.9059E-06
DEBUG_STATS_RL:          Uvel (THERMODYNAMICS)  min= -1.27120374005942E-01
DEBUG_STATS_RL:          Uvel (THERMODYNAMICS)  max=  1.46686063881201E-01
DEBUG_STATS_RL:          Uvel (THERMODYNAMICS) mean=  6.23029240334052E-03
DEBUG_STATS_RL:          Uvel (THERMODYNAMICS) S.D.=  2.21873583748268E-02
DEBUG_STATS_RL:          Vvel (THERMODYNAMICS)  min= -7.55454300185496E-02
DEBUG_STATS_RL:          Vvel (THERMODYNAMICS)  max=  1.28289900478367E-01
DEBUG_STATS_RL:          Vvel (THERMODYNAMICS) mean=  1.02293985136546E-03
DEBUG_STATS_RL:          Vvel (THERMODYNAMICS) S.D.=  1.31421030744159E-02
DEBUG_STATS_RL:          Wvel (THERMODYNAMICS)  min= -6.72650566263581E-05
DEBUG_STATS_RL:          Wvel (THERMODYNAMICS)  max=  1.60442669323725E-04
DEBUG_STATS_RL:          Wvel (THERMODYNAMICS) mean=  5.28381882292643E-09
DEBUG_STATS_RL:          Wvel (THERMODYNAMICS) S.D.=  8.87654313846252E-06
DEBUG_STATS_RL:         Theta (THERMODYNAMICS)  min= -1.94360603382425E+00
DEBUG_STATS_RL:         Theta (THERMODYNAMICS)  max=  3.10291224731640E+01
DEBUG_STATS_RL:         Theta (THERMODYNAMICS) mean=  3.22142845929880E+00
DEBUG_STATS_RL:         Theta (THERMODYNAMICS) S.D.=  5.88665964059807E+00
DEBUG_STATS_RL:          Salt (THERMODYNAMICS)  min= -2.77555756156289E-17
DEBUG_STATS_RL:          Salt (THERMODYNAMICS)  max=  3.74619845126214E+01
DEBUG_STATS_RL:          Salt (THERMODYNAMICS) mean=  1.88447519691215E+01
DEBUG_STATS_RL:          Salt (THERMODYNAMICS) S.D.=  1.73003009846585E+01
DEBUG_STATS_RL:         GtNm1 (THERMODYNAMICS)  min= -4.09759237577184E-06
DEBUG_STATS_RL:         GtNm1 (THERMODYNAMICS)  max=  2.08375892618070E-06
DEBUG_STATS_RL:         GtNm1 (THERMODYNAMICS) mean=  7.31789285190965E-10
DEBUG_STATS_RL:         GtNm1 (THERMODYNAMICS) S.D.=  1.41569058436362E-07
DEBUG_STATS_RL:         GsNm1 (THERMODYNAMICS)  min= -3.97786773893504E-07
DEBUG_STATS_RL:         GsNm1 (THERMODYNAMICS)  max=  4.40691373731233E-07
DEBUG_STATS_RL:         GsNm1 (THERMODYNAMICS) mean=  4.81868683556650E-11
DEBUG_STATS_RL:         GsNm1 (THERMODYNAMICS) S.D.=  1.38997369367055E-08
DEBUG_STATS_RL:                EtaN (DYNAMICS)  min= -1.88063970574549E+00
DEBUG_STATS_RL:                EtaN (DYNAMICS)  max=  9.04249368232612E-01
DEBUG_STATS_RL:                EtaN (DYNAMICS) mean= -1.87371002231468E-01
DEBUG_STATS_RL:                EtaN (DYNAMICS) S.D.=  7.19964804542508E-01
DEBUG_STATS_RL:                Uvel (DYNAMICS)  min= -1.27120374005942E-01
DEBUG_STATS_RL:                Uvel (DYNAMICS)  max=  1.46686063881201E-01
DEBUG_STATS_RL:                Uvel (DYNAMICS) mean=  6.23029240334052E-03
DEBUG_STATS_RL:                Uvel (DYNAMICS) S.D.=  2.21873583748268E-02
DEBUG_STATS_RL:                Vvel (DYNAMICS)  min= -7.55454300185496E-02
DEBUG_STATS_RL:                Vvel (DYNAMICS)  max=  1.28289900478367E-01
DEBUG_STATS_RL:                Vvel (DYNAMICS) mean=  1.02293985136546E-03
DEBUG_STATS_RL:                Vvel (DYNAMICS) S.D.=  1.31421030744159E-02
DEBUG_STATS_RL:                Wvel (DYNAMICS)  min= -6.72650566263581E-05
DEBUG_STATS_RL:                Wvel (DYNAMICS)  max=  1.60442669323725E-04
DEBUG_STATS_RL:                Wvel (DYNAMICS) mean=  5.28381882292643E-09
DEBUG_STATS_RL:                Wvel (DYNAMICS) S.D.=  8.87654313846252E-06
DEBUG_STATS_RL:               Theta (DYNAMICS)  min= -1.94360603382425E+00
DEBUG_STATS_RL:               Theta (DYNAMICS)  max=  3.10291224731640E+01
DEBUG_STATS_RL:               Theta (DYNAMICS) mean=  3.22142845929880E+00
DEBUG_STATS_RL:               Theta (DYNAMICS) S.D.=  5.88665964059807E+00
DEBUG_STATS_RL:                Salt (DYNAMICS)  min= -2.77555756156289E-17
DEBUG_STATS_RL:                Salt (DYNAMICS)  max=  3.74619845126214E+01
DEBUG_STATS_RL:                Salt (DYNAMICS) mean=  1.88447519691215E+01
DEBUG_STATS_RL:                Salt (DYNAMICS) S.D.=  1.73003009846585E+01
DEBUG_STATS_RL:                  Gu (DYNAMICS)  min= -1.26270524065561E-01
DEBUG_STATS_RL:                  Gu (DYNAMICS)  max=  1.55434850926752E-01
DEBUG_STATS_RL:                  Gu (DYNAMICS) mean=  6.13892466640472E-03
DEBUG_STATS_RL:                  Gu (DYNAMICS) S.D.=  2.25467841873010E-02
DEBUG_STATS_RL:                  Gv (DYNAMICS)  min= -7.41235878193049E-02
DEBUG_STATS_RL:                  Gv (DYNAMICS)  max=  1.28163196492003E-01
DEBUG_STATS_RL:                  Gv (DYNAMICS) mean=  3.66263305416913E-03
DEBUG_STATS_RL:                  Gv (DYNAMICS) S.D.=  1.46858372360592E-02
DEBUG_STATS_RL:               GuNm1 (DYNAMICS)  min= -9.91470964914501E-06
DEBUG_STATS_RL:               GuNm1 (DYNAMICS)  max=  9.25975854882597E-06
DEBUG_STATS_RL:               GuNm1 (DYNAMICS) mean=  8.26788820454339E-09
DEBUG_STATS_RL:               GuNm1 (DYNAMICS) S.D.=  1.21933763152041E-06
DEBUG_STATS_RL:               GvNm1 (DYNAMICS)  min= -9.66522230445088E-06
DEBUG_STATS_RL:               GvNm1 (DYNAMICS)  max=  1.55608249773575E-05
DEBUG_STATS_RL:               GvNm1 (DYNAMICS) mean=  7.37006376932525E-07
DEBUG_STATS_RL:               GvNm1 (DYNAMICS) S.D.=  2.61273961214851E-06
DEBUG_STATS_RL:               GtNm1 (DYNAMICS)  min= -4.09759237577184E-06
DEBUG_STATS_RL:               GtNm1 (DYNAMICS)  max=  2.08375892618070E-06
DEBUG_STATS_RL:               GtNm1 (DYNAMICS) mean=  7.31789285190965E-10
DEBUG_STATS_RL:               GtNm1 (DYNAMICS) S.D.=  1.41569058436362E-07
DEBUG_STATS_RL:               GsNm1 (DYNAMICS)  min= -3.97786773893504E-07
DEBUG_STATS_RL:               GsNm1 (DYNAMICS)  max=  4.40691373731233E-07
DEBUG_STATS_RL:               GsNm1 (DYNAMICS) mean=  4.81868683556650E-11
DEBUG_STATS_RL:               GsNm1 (DYNAMICS) S.D.=  1.38997369367055E-08
DEBUG_STATS_RL:    cg2d_b (SOLVE_FOR_PRESSURE)  min= -2.55892084168313E+04
DEBUG_STATS_RL:    cg2d_b (SOLVE_FOR_PRESSURE)  max=  2.64067843259859E+04
DEBUG_STATS_RL:    cg2d_b (SOLVE_FOR_PRESSURE) mean=  5.26402711485892E+00
DEBUG_STATS_RL:    cg2d_b (SOLVE_FOR_PRESSURE) S.D.=  3.90866272565605E+03
 cg2d: Sum(rhs),rhsMax =   4.61480755114444E-01  1.73446829673407E+00
(PID.TID 0000.0001)  cg2d: iter=     1 ; resid.=  5.76731626832920E-02
(PID.TID 0000.0001)  cg2d: iter=     2 ; resid.=  2.98136383568090E-02
(PID.TID 0000.0001)  cg2d: iter=     3 ; resid.=  2.15533502152273E-02
(PID.TID 0000.0001)  cg2d: iter=     4 ; resid.=  2.09050975035997E-02
(PID.TID 0000.0001)  cg2d: iter=     5 ; resid.=  2.06355166680413E-02
(PID.TID 0000.0001)  cg2d: iter=     6 ; resid.=  1.80282109538791E-02
(PID.TID 0000.0001)  cg2d: iter=     7 ; resid.=  1.64432897461862E-02
(PID.TID 0000.0001)  cg2d: iter=     8 ; resid.=  1.42926604264909E-02
(PID.TID 0000.0001)  cg2d: iter=     9 ; resid.=  1.13750325652514E-02
(PID.TID 0000.0001)  cg2d: iter=    10 ; resid.=  9.29191746088867E-03
(PID.TID 0000.0001)  cg2d: iter=    11 ; resid.=  7.32847863401915E-03
(PID.TID 0000.0001)  cg2d: iter=    12 ; resid.=  6.38119376216483E-03
(PID.TID 0000.0001)  cg2d: iter=    13 ; resid.=  5.30338726987608E-03
(PID.TID 0000.0001)  cg2d: iter=    14 ; resid.=  4.47018260444560E-03
(PID.TID 0000.0001)  cg2d: iter=    15 ; resid.=  3.85177632298710E-03
(PID.TID 0000.0001)  cg2d: iter=    16 ; resid.=  3.08346922517702E-03
(PID.TID 0000.0001)  cg2d: iter=    17 ; resid.=  2.61695378953852E-03
(PID.TID 0000.0001)  cg2d: iter=    18 ; resid.=  2.28044197361728E-03
(PID.TID 0000.0001)  cg2d: iter=    19 ; resid.=  1.96042922041018E-03
(PID.TID 0000.0001)  cg2d: iter=    20 ; resid.=  1.51862674765346E-03
(PID.TID 0000.0001)  cg2d: iter=    21 ; resid.=  1.15464569611329E-03
(PID.TID 0000.0001)  cg2d: iter=    22 ; resid.=  9.42917595508214E-04
(PID.TID 0000.0001)  cg2d: iter=    23 ; resid.=  8.35127141992802E-04
(PID.TID 0000.0001)  cg2d: iter=    24 ; resid.=  7.32028995790633E-04
(PID.TID 0000.0001)  cg2d: iter=    25 ; resid.=  6.49720032108875E-04
(PID.TID 0000.0001)  cg2d: iter=    26 ; resid.=  5.65987333508949E-04
(PID.TID 0000.0001)  cg2d: iter=    27 ; resid.=  4.80277866176936E-04
(PID.TID 0000.0001)  cg2d: iter=    28 ; resid.=  4.05162960905369E-04
(PID.TID 0000.0001)  cg2d: iter=    29 ; resid.=  3.27243734497416E-04
(PID.TID 0000.0001)  cg2d: iter=    30 ; resid.=  2.76138753661415E-04
(PID.TID 0000.0001)  cg2d: iter=    31 ; resid.=  2.28812222237244E-04
(PID.TID 0000.0001)  cg2d: iter=    32 ; resid.=  1.75059869394258E-04
(PID.TID 0000.0001)  cg2d: iter=    33 ; resid.=  1.43227232933361E-04
(PID.TID 0000.0001)  cg2d: iter=    34 ; resid.=  1.09479272056207E-04
(PID.TID 0000.0001)  cg2d: iter=    35 ; resid.=  8.30819233626282E-05
(PID.TID 0000.0001)  cg2d: iter=    36 ; resid.=  6.50812361210986E-05
(PID.TID 0000.0001)  cg2d: iter=    37 ; resid.=  5.71432136100489E-05
(PID.TID 0000.0001)  cg2d: iter=    38 ; resid.=  5.46936240694573E-05
(PID.TID 0000.0001)  cg2d: iter=    39 ; resid.=  5.09581177179468E-05
(PID.TID 0000.0001)  cg2d: iter=    40 ; resid.=  4.66892584223778E-05
(PID.TID 0000.0001)  cg2d: iter=    41 ; resid.=  3.67846895989466E-05
(PID.TID 0000.0001)  cg2d: iter=    42 ; resid.=  3.17313467589947E-05
(PID.TID 0000.0001)  cg2d: iter=    43 ; resid.=  2.70954401615200E-05
(PID.TID 0000.0001)  cg2d: iter=    44 ; resid.=  2.33908900107233E-05
(PID.TID 0000.0001)  cg2d: iter=    45 ; resid.=  1.95811033828454E-05
(PID.TID 0000.0001)  cg2d: iter=    46 ; resid.=  1.51946603819546E-05
(PID.TID 0000.0001)  cg2d: iter=    47 ; resid.=  1.15083605618841E-05
(PID.TID 0000.0001)  cg2d: iter=    48 ; resid.=  8.77481031377404E-06
(PID.TID 0000.0001)  cg2d: iter=    49 ; resid.=  7.22020381629978E-06
(PID.TID 0000.0001)  cg2d: iter=    50 ; resid.=  6.01802296487242E-06
(PID.TID 0000.0001)  cg2d: iter=    51 ; resid.=  5.42289073413229E-06
(PID.TID 0000.0001)  cg2d: iter=    52 ; resid.=  4.80932430970010E-06
(PID.TID 0000.0001)  cg2d: iter=    53 ; resid.=  4.18169542187763E-06
(PID.TID 0000.0001)  cg2d: iter=    54 ; resid.=  3.38338738424833E-06
(PID.TID 0000.0001)  cg2d: iter=    55 ; resid.=  2.70712356143794E-06
(PID.TID 0000.0001)  cg2d: iter=    56 ; resid.=  2.11817768231363E-06
(PID.TID 0000.0001)  cg2d: iter=    57 ; resid.=  1.72968665537447E-06
(PID.TID 0000.0001)  cg2d: iter=    58 ; resid.=  1.38990212930834E-06
(PID.TID 0000.0001)  cg2d: iter=    59 ; resid.=  1.03274052094678E-06
(PID.TID 0000.0001)  cg2d: iter=    60 ; resid.=  7.51152004445517E-07
(PID.TID 0000.0001)  cg2d: iter=    61 ; resid.=  5.76115733420415E-07
(PID.TID 0000.0001)  cg2d: iter=    62 ; resid.=  4.73735543997932E-07
(PID.TID 0000.0001)  cg2d: iter=    63 ; resid.=  3.89590172285473E-07
(PID.TID 0000.0001)  cg2d: iter=    64 ; resid.=  3.04718560750723E-07
(PID.TID 0000.0001)  cg2d: iter=    65 ; resid.=  2.46770077161523E-07
(PID.TID 0000.0001)  cg2d: iter=    66 ; resid.=  1.97373960912772E-07
(PID.TID 0000.0001)  cg2d: iter=    67 ; resid.=  1.63254304975171E-07
(PID.TID 0000.0001)  cg2d: iter=    68 ; resid.=  1.40886601540025E-07
(PID.TID 0000.0001)  cg2d: iter=    69 ; resid.=  1.13226228807082E-07
(PID.TID 0000.0001)  cg2d: iter=    70 ; resid.=  9.35456251243631E-08
(PID.TID 0000.0001)  cg2d: iter=    71 ; resid.=  7.48513509066594E-08
(PID.TID 0000.0001)  cg2d: iter=    72 ; resid.=  6.24400479737637E-08
(PID.TID 0000.0001)  cg2d: iter=    73 ; resid.=  5.25367546349333E-08
(PID.TID 0000.0001)  cg2d: iter=    74 ; resid.=  4.67608820157202E-08
(PID.TID 0000.0001)  cg2d: iter=    75 ; resid.=  3.93457648108728E-08
(PID.TID 0000.0001)  cg2d: iter=    76 ; resid.=  3.40330623678616E-08
(PID.TID 0000.0001)  cg2d: iter=    77 ; resid.=  2.84345402741764E-08
(PID.TID 0000.0001)  cg2d: iter=    78 ; resid.=  2.43210361332322E-08
(PID.TID 0000.0001)  cg2d: iter=    79 ; resid.=  1.92796865728042E-08
(PID.TID 0000.0001)  cg2d: iter=    80 ; resid.=  1.59971555217958E-08
(PID.TID 0000.0001)  cg2d: iter=    81 ; resid.=  1.37982409308118E-08
(PID.TID 0000.0001)  cg2d: iter=    82 ; resid.=  1.05225503762820E-08
(PID.TID 0000.0001)  cg2d: iter=    83 ; resid.=  8.06004924721459E-09
(PID.TID 0000.0001)  cg2d: iter=    84 ; resid.=  6.12526411812389E-09
(PID.TID 0000.0001)  cg2d: iter=    85 ; resid.=  4.34612294643261E-09
(PID.TID 0000.0001)  cg2d: iter=    86 ; resid.=  3.29007717905298E-09
(PID.TID 0000.0001)  cg2d: iter=    87 ; resid.=  2.51385170993663E-09
(PID.TID 0000.0001)  cg2d: iter=    88 ; resid.=  1.86518624381632E-09
(PID.TID 0000.0001)  cg2d: iter=    89 ; resid.=  1.47660076028170E-09
(PID.TID 0000.0001)  cg2d: iter=    90 ; resid.=  1.26492926805931E-09
(PID.TID 0000.0001)  cg2d: iter=    91 ; resid.=  1.08273539913634E-09
(PID.TID 0000.0001)  cg2d: iter=    92 ; resid.=  9.49663284052364E-10
(PID.TID 0000.0001)  cg2d: iter=    93 ; resid.=  7.65803429930264E-10
(PID.TID 0000.0001)  cg2d: iter=    94 ; resid.=  6.16541706037015E-10
(PID.TID 0000.0001)  cg2d: iter=    95 ; resid.=  5.19776469430004E-10
(PID.TID 0000.0001)  cg2d: iter=    96 ; resid.=  4.35110825299832E-10
(PID.TID 0000.0001)  cg2d: iter=    97 ; resid.=  3.51870684576217E-10
(PID.TID 0000.0001)  cg2d: iter=    98 ; resid.=  2.71044621077979E-10
(PID.TID 0000.0001)  cg2d: iter=    99 ; resid.=  2.02599311380195E-10
(PID.TID 0000.0001)  cg2d: iter=   100 ; resid.=  1.73602067332065E-10
(PID.TID 0000.0001)  cg2d: iter=   101 ; resid.=  1.47206855732600E-10
(PID.TID 0000.0001)  cg2d: iter=   102 ; resid.=  1.17610455053492E-10
(PID.TID 0000.0001)  cg2d: iter=   103 ; resid.=  8.61458903240438E-11
(PID.TID 0000.0001)  cg2d: iter=   104 ; resid.=  6.49956076660834E-11
(PID.TID 0000.0001)  cg2d: iter=   105 ; resid.=  5.09407288331425E-11
(PID.TID 0000.0001)  cg2d: iter=   106 ; resid.=  4.13132744257417E-11
(PID.TID 0000.0001)  cg2d: iter=   107 ; resid.=  3.35383244683314E-11
(PID.TID 0000.0001)  cg2d: iter=   108 ; resid.=  2.72960039546283E-11
(PID.TID 0000.0001)  cg2d: iter=   109 ; resid.=  2.11758383006122E-11
(PID.TID 0000.0001)  cg2d: iter=   110 ; resid.=  1.47992225445094E-11
(PID.TID 0000.0001)  cg2d: iter=   111 ; resid.=  1.16064372577845E-11
(PID.TID 0000.0001)  cg2d: iter=   112 ; resid.=  9.31866199102784E-12
(PID.TID 0000.0001)  cg2d: iter=   113 ; resid.=  7.00388908858140E-12
(PID.TID 0000.0001)  cg2d: iter=   114 ; resid.=  5.08175641546469E-12
(PID.TID 0000.0001)  cg2d: iter=   115 ; resid.=  3.63028636235749E-12
(PID.TID 0000.0001)  cg2d: iter=   116 ; resid.=  2.56800814675889E-12
(PID.TID 0000.0001)  cg2d: iter=   117 ; resid.=  1.95258480022365E-12
(PID.TID 0000.0001)  cg2d: iter=   118 ; resid.=  1.46547791874517E-12
(PID.TID 0000.0001)  cg2d: iter=   119 ; resid.=  1.08271563179954E-12
(PID.TID 0000.0001)  cg2d: iter=   120 ; resid.=  8.29003406275962E-13
(PID.TID 0000.0001)  cg2d: iter=   121 ; resid.=  6.54229450916267E-13
(PID.TID 0000.0001)  cg2d: iter=   122 ; resid.=  5.19532782782364E-13
(PID.TID 0000.0001)  cg2d: iter=   123 ; resid.=  4.24307036705793E-13
(PID.TID 0000.0001)  cg2d: iter=   124 ; resid.=  3.53316270063016E-13
(PID.TID 0000.0001)  cg2d: iter=   125 ; resid.=  2.74869714233668E-13
(PID.TID 0000.0001)  cg2d: iter=   126 ; resid.=  2.19641280489226E-13
(PID.TID 0000.0001)  cg2d: iter=   127 ; resid.=  1.60690238265339E-13
(PID.TID 0000.0001)  cg2d: iter=   128 ; resid.=  1.20412903164512E-13
(PID.TID 0000.0001)  cg2d: iter=   129 ; resid.=  8.28024924826781E-14
DEBUG_STATS_RL:    cg2d_x (SOLVE_FOR_PRESSURE)  min= -1.84235466875607E+01
DEBUG_STATS_RL:    cg2d_x (SOLVE_FOR_PRESSURE)  max=  8.83581993493826E+00
DEBUG_STATS_RL:    cg2d_x (SOLVE_FOR_PRESSURE) mean= -1.83950042618972E+00
DEBUG_STATS_RL:    cg2d_x (SOLVE_FOR_PRESSURE) S.D.=  7.06490191454879E+00
(PID.TID 0000.0001)      cg2d_init_res =   2.11336682982834E-01
(PID.TID 0000.0001)      cg2d_iters(min,last) =      -1     129
(PID.TID 0000.0001)      cg2d_last_res =   8.28024924826781E-14
(PID.TID 0000.0001) // =======================================================
(PID.TID 0000.0001) // Begin MONITOR dynamic field statistics
(PID.TID 0000.0001) // =======================================================
(PID.TID 0000.0001) %MON time_tsnumber                =                    80
(PID.TID 0000.0001) %MON time_secondsf                =   6.9120000000000E+06
(PID.TID 0000.0001) %MON dynstat_eta_max              =   9.0069520233817E-01
(PID.TID 0000.0001) %MON dynstat_eta_min              =  -1.8780373789562E+00
(PID.TID 0000.0001) %MON dynstat_eta_mean             =  -5.4923595765412E-03
(PID.TID 0000.0001) %MON dynstat_eta_sd               =   6.1843484389680E-01
(PID.TID 0000.0001) %MON dynstat_eta_del2             =   2.4574100661701E-03
(PID.TID 0000.0001) %MON dynstat_uvel_max             =   1.4807631830301E-01
(PID.TID 0000.0001) %MON dynstat_uvel_min             =  -1.2799877516202E-01
(PID.TID 0000.0001) %MON dynstat_uvel_mean            =   2.5588032269779E-03
(PID.TID 0000.0001) %MON dynstat_uvel_sd              =   1.3756591363558E-02
(PID.TID 0000.0001) %MON dynstat_uvel_del2            =   8.2928772457297E-05
(PID.TID 0000.0001) %MON dynstat_vvel_max             =   1.2509481257801E-01
(PID.TID 0000.0001) %MON dynstat_vvel_min             =  -7.6834366685403E-02
(PID.TID 0000.0001) %MON dynstat_vvel_mean            =   8.9865832392683E-06
(PID.TID 0000.0001) %MON dynstat_vvel_sd              =   7.9766081177466E-03
(PID.TID 0000.0001) %MON dynstat_vvel_del2            =   7.1570253911856E-05
(PID.TID 0000.0001) %MON dynstat_wvel_max             =   1.5573131245693E-04
(PID.TID 0000.0001) %MON dynstat_wvel_min             =  -6.5167512493317E-05
(PID.TID 0000.0001) %MON dynstat_wvel_mean            =  -3.7673895835778E-23
(PID.TID 0000.0001) %MON dynstat_wvel_sd              =   9.8788013091946E-06
(PID.TID 0000.0001) %MON dynstat_wvel_del2            =   9.8509025000603E-08
(PID.TID 0000.0001) %MON dynstat_theta_max            =   3.1029122473164E+01
(PID.TID 0000.0001) %MON dynstat_theta_min            =  -1.9436060338242E+00
(PID.TID 0000.0001) %MON dynstat_theta_mean           =   3.6242211648109E+00
(PID.TID 0000.0001) %MON dynstat_theta_sd             =   4.4277241170193E+00
(PID.TID 0000.0001) %MON dynstat_theta_del2           =   4.8436607585626E-03
(PID.TID 0000.0001) %MON dynstat_salt_max             =   3.7461984512621E+01
(PID.TID 0000.0001) %MON dynstat_salt_min             =   2.9915674889228E+01
(PID.TID 0000.0001) %MON dynstat_salt_mean            =   3.4717998910335E+01
(PID.TID 0000.0001) %MON dynstat_salt_sd              =   2.9657338814739E-01
(PID.TID 0000.0001) %MON dynstat_salt_del2            =   9.9232118944516E-04
(PID.TID 0000.0001) %MON dynstat_sst_max              =   3.1029122473164E+01
(PID.TID 0000.0001) %MON dynstat_sst_min              =  -1.9436060338242E+00
(PID.TID 0000.0001) %MON dynstat_sst_mean             =   1.9056817008496E+01
(PID.TID 0000.0001) %MON dynstat_sst_sd               =   9.1773753782917E+00
(PID.TID 0000.0001) %MON dynstat_sst_del2             =   2.8837506206889E-02
(PID.TID 0000.0001) %MON dynstat_sss_max              =   3.7460846243710E+01
(PID.TID 0000.0001) %MON dynstat_sss_min              =   2.9915674889228E+01
(PID.TID 0000.0001) %MON dynstat_sss_mean             =   3.4837411600501E+01
(PID.TID 0000.0001) %MON dynstat_sss_sd               =   9.8664205491879E-01
(PID.TID 0000.0001) %MON dynstat_sss_del2             =   8.1796971694266E-03
(PID.TID 0000.0001) %MON forcing_qnet_max             =   2.5568675130208E+02
(PID.TID 0000.0001) %MON forcing_qnet_min             =  -1.6214360555013E+02
(PID.TID 0000.0001) %MON forcing_qnet_mean            =  -5.6769202742661E+00
(PID.TID 0000.0001) %MON forcing_qnet_sd              =   4.3119698090752E+01
(PID.TID 0000.0001) %MON forcing_qnet_del2            =   8.2388175904859E-01
(PID.TID 0000.0001) %MON forcing_qsw_max              =   0.0000000000000E+00
(PID.TID 0000.0001) %MON forcing_qsw_min              =   0.0000000000000E+00
(PID.TID 0000.0001) %MON forcing_qsw_mean             =   0.0000000000000E+00
(PID.TID 0000.0001) %MON forcing_qsw_sd               =   0.0000000000000E+00
(PID.TID 0000.0001) %MON forcing_qsw_del2             =   0.0000000000000E+00
(PID.TID 0000.0001) %MON forcing_empmr_max            =   6.8724137728774E-05
(PID.TID 0000.0001) %MON forcing_empmr_min            =  -8.3323801902679E-05
(PID.TID 0000.0001) %MON forcing_empmr_mean           =   4.6092959436842E-07
(PID.TID 0000.0001) %MON forcing_empmr_sd             =   2.6018259992401E-05
(PID.TID 0000.0001) %MON forcing_empmr_del2           =   3.6418795428609E-07
(PID.TID 0000.0001) %MON forcing_fu_max               =   3.5412625869115E-01
(PID.TID 0000.0001) %MON forcing_fu_min               =  -3.9228870868683E-01
(PID.TID 0000.0001) %MON forcing_fu_mean              =   1.9947960912656E-02
(PID.TID 0000.0001) %MON forcing_fu_sd                =   1.0113823229809E-01
(PID.TID 0000.0001) %MON forcing_fu_del2              =   8.1500595497074E-04
(PID.TID 0000.0001) %MON forcing_fv_max               =   1.8291634122531E-01
(PID.TID 0000.0001) %MON forcing_fv_min               =  -1.7970077792803E-01
(PID.TID 0000.0001) %MON forcing_fv_mean              =  -7.3836687505524E-03
(PID.TID 0000.0001) %MON forcing_fv_sd                =   4.1110049658616E-02
(PID.TID 0000.0001) %MON forcing_fv_del2              =   4.7130886411290E-04
(PID.TID 0000.0001) %MON trAdv_CFL_u_max              =   4.1517445605338E-02
(PID.TID 0000.0001) %MON trAdv_CFL_v_max              =   2.4823101623893E-02
(PID.TID 0000.0001) %MON trAdv_CFL_w_max              =   3.5544222127102E-02
(PID.TID 0000.0001) %MON advcfl_uvel_max              =   4.1414391607547E-02
(PID.TID 0000.0001) %MON advcfl_vvel_max              =   2.4303915804321E-02
(PID.TID 0000.0001) %MON advcfl_wvel_max              =   3.6863521633640E-02
(PID.TID 0000.0001) %MON advcfl_W_hf_max              =   3.9574074694938E-02
(PID.TID 0000.0001) %MON pe_b_mean                    =   4.8944438927501E-04
(PID.TID 0000.0001) %MON ke_max                       =   1.1470119906398E-02
(PID.TID 0000.0001) %MON ke_mean                      =   1.1751560255628E-04
(PID.TID 0000.0001) %MON ke_vol                       =   1.3226782436723E+18
(PID.TID 0000.0001) %MON vort_r_min                   =  -3.6335887345664E-07
(PID.TID 0000.0001) %MON vort_r_max                   =   3.9017653094056E-07
(PID.TID 0000.0001) %MON vort_a_mean                  =  -2.5274807023634E-05
(PID.TID 0000.0001) %MON vort_a_sd                    =   7.3604700024847E-05
(PID.TID 0000.0001) %MON vort_p_mean                  =  -3.1845655328471E-05
(PID.TID 0000.0001) %MON vort_p_sd                    =   1.3162482023641E-04
(PID.TID 0000.0001) %MON surfExpan_theta_mean         =   1.1227499571503E-07
(PID.TID 0000.0001) %MON surfExpan_salt_mean          =   2.5331873373315E-08
(PID.TID 0000.0001) // =======================================================
(PID.TID 0000.0001) // End MONITOR dynamic field statistics
(PID.TID 0000.0001) // =======================================================
(PID.TID 0000.0001) // =======================================================
(PID.TID 0000.0001) // Field Current uVel   at iteration         80
(PID.TID 0000.0001) // CMIN =         -1.279987751620188E-01
(PID.TID 0000.0001) // CMAX =          1.480763183030117E-01
(PID.TID 0000.0001) // CINT =          1.022500346166779E-02
(PID.TID 0000.0001) // SYMBOLS (CMIN->CMAX): -abcdefghijklmnopqrstuvwxyz+
(PID.TID 0000.0001) //                  0.0: .
(PID.TID 0000.0001) // RANGE I (Lo:Hi:Step):(     1:    90:     1)
(PID.TID 0000.0001) // RANGE J (Lo:Hi:Step):(    40:     1:    -1)
(PID.TID 0000.0001) // RANGE K (Lo:Hi:Step):(   1:   1:   1)
(PID.TID 0000.0001) // =======================================================
(PID.TID 0000.0001) K =   1
(PID.TID 0000.0001)                I=10      I=20      I=30      I=40      I=50      I=60      I=70      I=80      I=90
(PID.TID 0000.0001) |--J--|123456789|123456789|123456789|123456789|123456789|123456789|123456789|123456789|123456789|
(PID.TID 0000.0001)     40 lmmll..llllllmmmmmm...................................................................llll
(PID.TID 0000.0001)     39 mnnmmmmmmmmmmm....m......................................................mml.........kkkkl
(PID.TID 0000.0001)     38 mnnnmmmmmmmmm............................................................mmlm.......jjjklm
(PID.TID 0000.0001)     37 nnn...................................................................m....kl....jkjk..lmm
(PID.TID 0000.0001)     36 on..........................................kkl.....................lmmmlmlkjk..jjjkllmmno
(PID.TID 0000.0001)     35 nn..................................lll...lkkkll....kllm............ll.....lkkljjlmmmmmoon
(PID.TID 0000.0001)     34 ....................................lll..kkkklll..mllmmmm...................nnmmnooppoon..
(PID.TID 0000.0001)     33 .....................................lllkkllmmnnnnoooppponm..................opqssssrqoml.
(PID.TID 0000.0001)     32 .....................................llllmnopqqqqqqqqqqqpon.................qrstuutsrponn.
(PID.TID 0000.0001)     31 .....................................mnooppqrrrrrqqqqppppon...............nsusuutsrqpoon..
(PID.TID 0000.0001)     30 ....................................qqrrqqrrqqppppponnmmmnm.............pqrrrrrsrqponnmm..
(PID.TID 0000.0001)     29 ..................................oqsrrqqpoopponnnnmmlllllll............rpponnnnnnmmlllk..
(PID.TID 0000.0001)     28 ................................oqrrqqpooooopponmmmmmmmllllll..........pqpnnnmmmmllkkkkl..
(PID.TID 0000.0001)     27 ...............m...............orqppoooooppopoonmmmmnmmllkjjkl....mmn..qqqqponnlkkjjjj....
(PID.TID 0000.0001)     26 ...............nm............jjmnmlkkkkkllmmlkkjkjjkkjjjjjjjjlmm..lllmnonoonmlkkkjjiii....
(PID.TID 0000.0001)     25 ...............onm....mm....lijkmljijihhhiiihgghiiiijiiijkkllmnnm....kllklmmllllmllllk....
(PID.TID 0000.0001)     24 .............opponn..nnm....nn..nmkjjjiiijjiiijklkkllmmnnnoonnmmmmmm..mmkmnoopoppooooo....
(PID.TID 0000.0001)     23 .............nlklkl..kkl....mm...jiiihhhiiiiiijllkklmnnopopomlkkkkklm.....mmkllmlmmnpp....
(PID.TID 0000.0001)     22 n............gdcddccfffj....l..gfggfedcefedeeffiihijkmopqpqnnmkkkkjjij.......migefilopppnn
(PID.TID 0000.0001)     21 nop.........fedcba-acfhkm......hgmkigfeeggfefffggfhhhiklnmmkllmnnmkjij.........gbbfilnnppo
(PID.TID 0000.0001)     20 lmn........khjjijifehlmmn.........lkllkillmlkjjjjihgfghhhgffgijklkihhj..........gceggiijkk
(PID.TID 0000.0001)     19 kmn........khijkmnlkkmllmnm....jn......noprqqooonlkjhiihhgfeeeegggfffh............iggggggh
(PID.TID 0000.0001)     18 kmn........kgegijjlklmlklmlkjihil....moooopqqoonmllljjjiiiiihghhggggghk...........mkjiiiii
(PID.TID 0000.0001)     17 klm..........gfhhjijlklkkkkkjii......lllkkllmllkjijkjiijjijjjjjjjiijkkl..........nmlkjjjkk
(PID.TID 0000.0001)     16 ijj.......m..khgijghjikjjjkklk........kjjjjkkkkkjjjjjjjjihijjjjjjjjkklll.........mlkiiiiij
(PID.TID 0000.0001)     15 feei.....ln..ommnmlllmnmkkklm..........kklmlmnoonmmmmmmllklkjjkkkkjjjjijk.......lnnlkjihhh
(PID.TID 0000.0001)     14 hfef.....nllmppqrpppoonnmmkkl..........mmmnopqqrrqqqrqpppponmmmlklkkjjihj......lnppoomlkji
(PID.TID 0000.0001)     13 jihg.....mllmnnopooonmmmmmkkk..........nnnopqqppqqqpqqqqqppooomlkmmmlkkjk.....klmnnoonnmlk
(PID.TID 0000.0001)     12 llkjkkillmmllllmmnmlllmnmllkklmmll.....nnnnnnonnnonmmnnnnnnnonlklmnmmlll......mmnnnnoonnmm
(PID.TID 0000.0001)     11 pponnkknprsrrrrrqrqqpppqpooonnnnmll...mmmmm..nnnnmmlmmmmmmmnnnmlmnnonnml.....mopqrrrrrqppp
(PID.TID 0000.0001)     10 utssstvvwxzzz++zyz+ywvvvvuutsrrqpomm..nonnm..opnnmmmnnnnnmnooooppqppppon...mnortuvvvwwvvvv
(PID.TID 0000.0001)      9 xxxxxxyyyyzyxyzzyy++zyyxxxxwwvvutsrqqpppon..pqppppopoppqqpppppqqqqqpppol..noprtuvvwxyyyyyy
(PID.TID 0000.0001)      8 wwxyxwvvvvvuuutttttuwxwwwwxxwwwwwwwwwvvusrrsrqqrrssssssssssrrrrrrqqqqpon..nnnpqqrsuvvvwwvv
(PID.TID 0000.0001)      7 sstttsrsssssrrqqrrqqrssssstttuuuuvwxxxwwvvvusrrsssttuvvuttsrrrrssrrrrrrsrqqppqqpppqrrrrrrr
(PID.TID 0000.0001)      6 oooooppqqqqppooopqpoonooppqqrrsssssssstuvwvutsssssttuvwvutrrrrrrssssssstvvvvvusqpooooooooo
(PID.TID 0000.0001)      5 llllmnnoonnnmmmmnnnnmmmmmmmnooooooooopqrsttttssssttsssrrrqqqqqrrrrrrrsssssrrsqponnnnnnnnmm
(PID.TID 0000.0001)      4 kkjkklllmllllllllmmmllllkklllllllmmmmmmmnooppqqqpppoonnnnoopppppppppppppon...lmmlllllllllk
(PID.TID 0000.0001)      3 kkkkkkkkll.............................llllllmmmmmllkkkllmmmmmmmnnmmmmmmm...llllllllllllkk
(PID.TID 0000.0001)      2 ...........................................llllllllkkkkkklllllll...lll......mllllllllll...
(PID.TID 0000.0001)      1 ..........................................................................................
(PID.TID 0000.0001) // =======================================================
(PID.TID 0000.0001) // END OF FIELD                                          =
(PID.TID 0000.0001) // =======================================================
(PID.TID 0000.0001) 
(PID.TID 0000.0001) // =======================================================
(PID.TID 0000.0001) // Field Current vVel   at iteration         80
(PID.TID 0000.0001) // CMIN =         -7.164659879236891E-02
(PID.TID 0000.0001) // CMAX =          1.250948125780139E-01
(PID.TID 0000.0001) // CINT =          7.286718939643806E-03
(PID.TID 0000.0001) // SYMBOLS (CMIN->CMAX): -abcdefghijklmnopqrstuvwxyz+
(PID.TID 0000.0001) //                  0.0: .
(PID.TID 0000.0001) // RANGE I (Lo:Hi:Step):(     1:    90:     1)
(PID.TID 0000.0001) // RANGE J (Lo:Hi:Step):(    40:     1:    -1)
(PID.TID 0000.0001) // RANGE K (Lo:Hi:Step):(   1:   1:   1)
(PID.TID 0000.0001) // =======================================================
(PID.TID 0000.0001) K =   1
(PID.TID 0000.0001)                I=10      I=20      I=30      I=40      I=50      I=60      I=70      I=80      I=90
(PID.TID 0000.0001) |--J--|123456789|123456789|123456789|123456789|123456789|123456789|123456789|123456789|123456789|
(PID.TID 0000.0001)     40 ijnol.iiiijjkj...jj..................................................................ihhih
(PID.TID 0000.0001)     39 jklmljiiiiijk...........................................................iijj........fiijjj
(PID.TID 0000.0001)     38 lmm.......................................................................iii......ig.lmkk
(PID.TID 0000.0001)     37 mo...................................................................ji...iih...einmj.kljk
(PID.TID 0000.0001)     36 ll.........................................lllk....................jjj....hghi.cbiljjiikki
(PID.TID 0000.0001)     35 ...................................jjkj..kllmmlk...fgkll...................efgfeghhgggil..
(PID.TID 0000.0001)     34 ....................................jii.jjjjkjjj.gfggiklk...................fceffgffedfi..
(PID.TID 0000.0001)     33 ....................................igghiihghhgffeefghiijkj.................mcfgggffdcbgj.
(PID.TID 0000.0001)     32 ....................................igffgggfffedeefghiiiiij................qngikjihhfeei..
(PID.TID 0000.0001)     31 ....................................lkihhhhffgffffghiiiihgh..............lnmjjkkjjiiiijj..
(PID.TID 0000.0001)     30 ...................................mmjiiiihffggggfffggggfff............oqlljhiiijiijkklk..
(PID.TID 0000.0001)     29 .................................lkkjgeeffdcceffffefffffffef...........nmigeeefhjiijkklk..
(PID.TID 0000.0001)     28 ...............................ookihgfeeffddeffhiiijiihhhhfef.........kkigfeeegjkkkkkj....
(PID.TID 0000.0001)     27 ..............ij..............oomkjjjijkkjiiijklmmmmlkkjjigffg...klmo.mmkkjjjjklllllki....
(PID.TID 0000.0001)     26 ..............jjj...........fhnmjijllmnonmlkkklmmmkkkkjjjhgghhjk....onljjkkkjiijkjihgg....
(PID.TID 0000.0001)     25 ..............nmlj...kkj...gei.mggjklmnmllkkkkkkllkjjjjjjjjkkkkji....mlkljjjijkklkjjii....
(PID.TID 0000.0001)     24 ............orttqll.mmnm...llm..iilmnpqqqrrqqrrrrrrqpqssstsrqonlkkkk.....qqprrsttstroj....
(PID.TID 0000.0001)     23 ............szzwtpq.mprp...kl...hlrvxy++zyyz++zzyyxwwxyz+zxwusqonnnnm.......tuxzyzxwtl....
(PID.TID 0000.0001)     22 j...........ovvvsonkjnrs......hefiotwwyywuuuuvuuuvutuuuwwwwusqonmmmnkg........psvyxwupmmkj
(PID.TID 0000.0001)     21 hhi........mnpqpnjihhjklh......-.finrssromllkklmmllmnnopqqqqpnmllkkjhe.........lovtponlllj
(PID.TID 0000.0001)     20 fhk.......lmoomifeedeeedc......a......jhgghhgghhhgghihhhhfefgfddeffggg...........tpjhhghgf
(PID.TID 0000.0001)     19 ceh.......jmrqkebeeeeedddhj...fgj.....mljkllllllmlllljihgeddca-abccdfh...........lkfeedccc
(PID.TID 0000.0001)     18 efi.......k.tumkjijiikighkkjjif.....lmponoooppppqqpponnlkjjigedddcbcdeh..........mmkjhfccd
(PID.TID 0000.0001)     17 kkk.......l.nqllihiiiijiiijjii.......kkjjklllmlkllllmmlllkkkkjjjihggijk.........ikllllkjjk
(PID.TID 0000.0001)     16 noo......ll.higfffegfcefghhhi.........gfefggghhggfghiihhiiiiijjkjijjlmnl........fghhjklllm
(PID.TID 0000.0001)     15 kmnl....ijk.dfgffdehebdfghggg.........feedeefhggfffghhhghijiikkkjijklmnnk......gfhhhijjkkk
(PID.TID 0000.0001)     14 kllk....ghljhkkjjhikhefhjihgg.........gfhhihiiihhijiijiiijjijmllljkkkkllk.....fhiklkkllmml
(PID.TID 0000.0001)     13 mlml....cgmmklmmmlllkjjklkjii.........hgjkljijjjjjkjjjjjjjjijlklmlkkkklk.....hfhijlklllmnm
(PID.TID 0000.0001)     12 llkkmhbbaejjhhjjjjjkiiijkkjjihhijk....hhjkk.iijjjjiiijjjjiiiiihjmmkjkkmk.....fggghhhhjjjkl
(PID.TID 0000.0001)     11 kkjjhfeedeijgfhjjjijjiijkkkkihhhhjj..hgiiij.ihhhjihhiiijkjijjhhjnomkkklj....ggjiggggghhikk
(PID.TID 0000.0001)     10 nnnnmkihilnnkjjlnnjikmnnnnnnmkkjjjmn.iijji..mjhhjjjjjjikmnnmlkknqqpnmmlj..lnjmpomkkjiiklnn
(PID.TID 0000.0001)      9 pprssqnloqsrqpnmrvnknqrsrqqqqonnmmpsqnmmlk.qpmklmmmmnnnopqrqonoqssqppnig.loqqsvtqpoommoqrq
(PID.TID 0000.0001)      8 qrrrrqooopqrrpolovupqqrssrrqqqqppqsutpmllnsuqonopponooprrrrrpppqrrqqpnih.npsuvvtqpponooprr
(PID.TID 0000.0001)      7 qpommmnonnoponmmlotrpoopppooppqqppstromkknqrqpopqqqqponppoopooooppponnmlprqsuutroonmmnoopq
(PID.TID 0000.0001)      6 nmkkklmnnmllllkklmnonmmmmllmnnnnnmnonmmllmnnnnoppppqpnlllklnnnmmnnnnmmmnpqprqoonllmlllmnnn
(PID.TID 0000.0001)      5 kjiijjjkkjiiiiiijjjjjjihhhhijjjjiiijkkkkkllkklnoonoonmlkjjklmmlllmmlllmmlm..ljllkkkkkklkkk
(PID.TID 0000.0001)      4 gfefffeefg............................ihijjjjjlmmmllkkjjkkkkkjjiijjjjjijj...jjjjjjjjjjjihh
(PID.TID 0000.0001)      3 ..........................................ijiiiijjjiiiiijjiihhhh..jihi.....ikljiiiiiihh...
(PID.TID 0000.0001)      2 ..........................................................................................
(PID.TID 0000.0001)      1 ..........................................................................................
(PID.TID 0000.0001) // =======================================================
(PID.TID 0000.0001) // END OF FIELD                                          =
(PID.TID 0000.0001) // =======================================================
(PID.TID 0000.0001) 
(PID.TID 0000.0001) // =======================================================
(PID.TID 0000.0001) // Field Current theta  at iteration         80
(PID.TID 0000.0001) // CMIN =         -1.943606033824250E+00
(PID.TID 0000.0001) // CMAX =          3.102912247316396E+01
(PID.TID 0000.0001) // CINT =          1.221212166925489E+00
(PID.TID 0000.0001) // SYMBOLS (CMIN->CMAX): -abcdefghijklmnopqrstuvwxyz+
(PID.TID 0000.0001) //                  0.0: .
(PID.TID 0000.0001) // RANGE I (Lo:Hi:Step):(     1:    90:     1)
(PID.TID 0000.0001) // RANGE J (Lo:Hi:Step):(    40:     1:    -1)
(PID.TID 0000.0001) // RANGE K (Lo:Hi:Step):(   1:   1:   1)
(PID.TID 0000.0001) // =======================================================
(PID.TID 0000.0001) K =   1
(PID.TID 0000.0001)                I=10      I=20      I=30      I=40      I=50      I=60      I=70      I=80      I=90
(PID.TID 0000.0001) |--J--|123456789|123456789|123456789|123456789|123456789|123456789|123456789|123456789|123456789|
(PID.TID 0000.0001)     40 -bbccba-------abcddbbbbbbbbbbbbbbbbbbbbbbbbbbbbbbbbbbbbbbbbbbbbbbbbbbbbbbbbbbbbbbbbbbaaa--
(PID.TID 0000.0001)     39 bbccccbbaa----bbbddbbbbbbbbbbbbbbbbbbbbbbbbbbbbbbbbbbbbbbbbbbbbbbbbbbbbb----bbbbbbbbaaaaaa
(PID.TID 0000.0001)     38 deeeeecccbaa-bbbbbbbbbbbbbbbbbbbbbbbbbbbbbbbbbbbbbbbbbbbbbbbbbbbbbbbbbbb-----bbbbbba--abcc
(PID.TID 0000.0001)     37 ffgbbbbbbbbbbbbbbbbbbbbbbbbbbbbbbbbbbbbbbbbbbbbbbbbbbbbbbbbbbbbbbbbbbbbbbba-abbbbaeeebcdde
(PID.TID 0000.0001)     36 ggbbbbbbbbbbbbbbbbbbbbbbbbbbbbbbbbbbbbbbbbbba--bbbbbbbbbbbbbbbbbbbbcccbbaaabadbceffghhhggg
(PID.TID 0000.0001)     35 ffbbbbbbbbbbbbbbbbbbbbbbbbbbbbbbbbb----bbabcccb-bbbddeefbbbbbbbbbbbbbbbbbbbcddddeffhhiiihg
(PID.TID 0000.0001)     34 bbbbbbbbbbbbbbbbbbbbbbbbbbbbbbbbbbb----bacccccccbccedefffbbbbbbbbbbbbbbbbbbbabdeefghiijibb
(PID.TID 0000.0001)     33 bbbbbbbbbbbbbbbbbbbbbbbbbbbbbbbbbbbb--abbcccccdddeeeefffgghbbbbbbbbbbbbbbbbbaacfhijjkjjjjb
(PID.TID 0000.0001)     32 bbbbbbbbbbbbbbbbbbbbbbbbbbbbbbbbbbbb-abbccddddeeffggggghhhibbbbbbbbbbbbbbbbdcaaikllllkkkjb
(PID.TID 0000.0001)     31 bbbbbbbbbbbbbbbbbbbbbbbbbbbbbbbbbbbbdeefgggghihhhihiijjjjjjbbbbbbbbbbbbbbhilkgjlmmmmmlllbb
(PID.TID 0000.0001)     30 bbbbbbbbbbbbbbbbbbbbbbbbbbbbbbbbbbbkkjjjjkkkkkkkkkkkllmmmllbbbbbbbbbbbbmmmoooooooooonnnnbb
(PID.TID 0000.0001)     29 bbbbbbbbbbbbbbbbbbbbbbbbbbbbbbbbbnnnnnnmmnnmnnnnnnnnnooonnmmbbbbbbbbbbbopqqqppppppppoooobb
(PID.TID 0000.0001)     28 bbbbbbbbbbbbbbbbbbbbbbbbbbbbbbbmopppppoopppppppppppppqqpponnnbbbbbbbbbqrrrqrrqqqqqppppppbb
(PID.TID 0000.0001)     27 bbbbbbbbbbbbbbuubbbbbbbbbbbbbbqqrrrrrrrrrssrrssrsssrrrrrqqpoppbbbrrrsbsttttttssssrrrqqbbbb
(PID.TID 0000.0001)     26 bbbbbbbbbbbbbbuttbbbbbbbbbbbtstttttuuuuuuuuuuutttttttssrrrqqqrsubstuvuuuuuuuuutttsrrqqbbbb
(PID.TID 0000.0001)     25 bbbbbbbbbbbbbbuuvvbbbwvwbbbuuvvvvvvwwwwwvvvvvvuuuuuutttsssrsstuvwbbbvvvvvuuuuuuutssrqqbbbb
(PID.TID 0000.0001)     24 bbbbbbbbbbbbvvvvwxybwwwxbbbwwwbwwwwxxwwwwwvvvvvvvvuvvvvvvvvvvvvwwvvwbwvvvvvuuuuutttttsbbbb
(PID.TID 0000.0001)     23 bbbbbbbbbbbbwwwxxyybwxxxbbbxwwbbwxxxxxxxxxwwwwwwwwwwwwwwwwwwwwwwwwwxvbbbbwvvvvvvvvvvvwbbbb
(PID.TID 0000.0001)     22 wbbbbbbbbbbbwwwxxyyyxxyybbbxxbzyxxxyyxyyyyxxxxxxxxxxxxxwwwwwwwwvwwwvvwbbbbbbxwwwwwxxxyyyxw
(PID.TID 0000.0001)     21 wvvbbbbbbbbxxxxxxxyyyyzz+bbbbbzyzzzzyzzzzzyyyyyyyyyyyyxxxxxxxxxxxwwvvvbbbbbbbbxxxyyyyyzyxw
(PID.TID 0000.0001)     20 wvvbbbbbbbyyyyyyyyyzzzzz+bbbbbbzbzzzzz++++zzzzzzzzzyyyyxxxxxxxxxxxxwwvbbbbbbbbbyyyyyxyyxxw
(PID.TID 0000.0001)     19 vvwbbbbbbbzzzyyyyyyyyyyyzzybbbzzzbbbbbzzzz++zzzzzzzzyyyxxxxxwwwvvwwvvubbbbbbbbbbbyxxwwwvwv
(PID.TID 0000.0001)     18 vuubbbbbbbzzyxxxxyyyyyyyyyzzzz+zzbbb++zzzz+zzzzzzzzzyyyyxxxxwwwvvvvvuutbbbbbbbbbbyxxwwvvwv
(PID.TID 0000.0001)     17 uutbbbbbbbzbyxxxxxxxyyyxyyyyyzzbbbbbzzyzzzzzzzzzzyzzyyxxxxxxwwwvuvvuttvbbbbbbbbbxyyxxvuvvv
(PID.TID 0000.0001)     16 utsbbbbbbyzbyxxxxwwwxxwwwwxxyzbbbbbbbxxxyyyyyyyyyyyyyyxxxxxxxwwwvvvuutstbbbbbbbbyyyyxwvvvu
(PID.TID 0000.0001)     15 tsrrbbbbwxxbwxwwwvvvwwwvuuvvxbbbbbbbbbwwwxxxxxxxxxxxxxxxxxyxxwwwvvuuttssrbbbbbbxxxxxxxwwvu
(PID.TID 0000.0001)     14 tsrqbbbbwxwvwwwvwwwvuuuuttttubbbbbbbbbvvvwwwwwwwwwwxxxwwxxxxwwwvvvvutssssbbbbbvwxxxxxwwwvu
(PID.TID 0000.0001)     13 utsqbbbbvxwvwwvuvvvvuuutsssssbbbbbbbbbuvvvvvvvvvvvuvvvwvvwwxwwvvvuuutssspbbbbvvwwwwwwwwvvu
(PID.TID 0000.0001)     12 ssssssrsuvutuutssssstutrrssrrqqrrqbbbbtuuutttttsststttttttuuuttttsstssrrbbbbbtvvvutuuuuttt
(PID.TID 0000.0001)     11 qpppqqrsrsrqrsrqqqpopqqppqppppqqqqqbbssssssbrrrqrrrrrrrrrrsrqqqrrqrrrrqpbbbboqsssrrrsrrqqq
(PID.TID 0000.0001)     10 mmllmnopppoooponnmnnmnnmmmmllnnooooobqrrqqqbpqqqqqqppppppppooopoooooopoobbopppppooonoppoon
(PID.TID 0000.0001)      9 jjjiijjkkjjkkkkjjiijjjjiiijjijkklmnmmnooopbnnoooooooooooonmmmmmmmmllmmmmbmnnnnmmlllkkllkjj
(PID.TID 0000.0001)      8 ggggggghhgghhiiihghhhhhggghhhhijjjjjjkkllmmlllllllllmmllllkkkjkkkkkjkklkbkkkkkjjiiiihhhggf
(PID.TID 0000.0001)      7 eeeeefffggfffggggfffffeeeffggggghhhghiijjkjjjjjkkjjjiiiiiiiiiihiiiiiiijjiijiiihhgffffffeee
(PID.TID 0000.0001)      6 ddddeeeeeeeeeefeefeeeeefeeeeddefffeefggghhhhhhhhihggffggggggffffggghhhhhhhhhggffeeeeeddddd
(PID.TID 0000.0001)      5 ddddddddddeeeeeeeeeddddedddddeeeeeeeeeeffffffffeffedddeeeeeeeeeeeeefffffeefeeeeddddddcdccd
(PID.TID 0000.0001)      4 ddddddccccccccccccccccccbbbbccccccbbccccddddddccccdddddddddccdddddddddddddbbbbbbcccccccccc
(PID.TID 0000.0001)      3 cccbbbbaaabbbbbbbbbbbbbbbbbbbbbbbbbbbbbbaaabbbbbbcccccbbbbbbbbbbbbbbbbbbbbbbbaaabbccccbbbb
(PID.TID 0000.0001)      2 bbbbbbbbbbbbbbbbbbbbbbbbbbbbbbbbbbbbbbbbbbaabbbbbbbbbaaaaaaaaaaabbaaaabbbbbaaaaaabbbbbbbbb
(PID.TID 0000.0001)      1 bbbbbbbbbbbbbbbbbbbbbbbbbbbbbbbbbbbbbbbbbbbbbbbbbbbbbbbbbbbbbbbbbbbbbbbbbbbbbbbbbbbbbbbbbb
(PID.TID 0000.0001) // =======================================================
(PID.TID 0000.0001) // END OF FIELD                                          =
(PID.TID 0000.0001) // =======================================================
(PID.TID 0000.0001) 
(PID.TID 0000.0001) // =======================================================
(PID.TID 0000.0001) // Field Current etaN   at iteration         80
(PID.TID 0000.0001) // CMIN =         -1.878037378956159E+00
(PID.TID 0000.0001) // CMAX =          9.006952023381689E-01
(PID.TID 0000.0001) // CINT =          1.029160215294196E-01
(PID.TID 0000.0001) // SYMBOLS (CMIN->CMAX): -abcdefghijklmnopqrstuvwxyz+
(PID.TID 0000.0001) //                  0.0: .
(PID.TID 0000.0001) // RANGE I (Lo:Hi:Step):(    -1:    92:     1)
(PID.TID 0000.0001) // RANGE J (Lo:Hi:Step):(    42:    -1:    -1)
(PID.TID 0000.0001) // RANGE K (Lo:Hi:Step):(   1:   1:   1)
(PID.TID 0000.0001) // =======================================================
(PID.TID 0000.0001) K =   1
(PID.TID 0000.0001)                I=8       I=18      I=28      I=38      I=48      I=58      I=68      I=78      I=88
(PID.TID 0000.0001) |--J--|101234567|901234567|901234567|901234567|901234567|901234567|901234567|901234567|901234567|9012
(PID.TID 0000.0001)     42 ............................................aaaabbbbbccccccccbcccc..dccc.....aaaaaaaaaaaa.....
(PID.TID 0000.0001)     41 ..............................................................................................
(PID.TID 0000.0001)     40 llkkkll.mmmmmmmmmmmmm..................................................................lllllkk
(PID.TID 0000.0001)     39 llkkkllmllllllmm...ll.....................................................jjjj........mmllllkk
(PID.TID 0000.0001)     38 llllmmmmmmllllm...........................................................jjjjj......mlkllllll
(PID.TID 0000.0001)     37 lllmn..................................................................ll...kkj...kkklk.kllllm
(PID.TID 0000.0001)     36 mmmo.........................................pppp....................lllllkjjjjj.mjijklmlmmmmo
(PID.TID 0000.0001)     35 nnnn.................................pppp..opppppp...sqqrr...........lll....ljiiiiiijkklmmnnnn
(PID.TID 0000.0001)     34 .....................................pppp.pppppppq.qppppqrs..................kkjiiijkllmnp....
(PID.TID 0000.0001)     33 o.....................................ppppppppppppqqpppqqrrst.................mkjkkllmnnnno...
(PID.TID 0000.0001)     32 p.....................................qppopppppqqqqqqqqrrrrrs................hnmlmnnooooonp...
(PID.TID 0000.0001)     31 ......................................ppppppqqrrrrrrrrrssssst..............mnnonnooooooonn....
(PID.TID 0000.0001)     30 .....................................qrrrrrrssssssssssttttttt............loopqqqrqqqqpppoo....
(PID.TID 0000.0001)     29 ...................................tuuvvvuuuvuuuuuuuuuuuuuuuts...........oqrssssrrrrqqpppp....
(PID.TID 0000.0001)     28 .................................tvwwxxxxxwwwwwwvvvvvuuvvuuuuts.........rrssssssrrrrqqpppp....
(PID.TID 0000.0001)     27 ................ss..............wwxyyyyyyyxyxxxwwwwwvvvvvvuuutts...tttt.sttttsssrrrqqqpp......
(PID.TID 0000.0001)     26 ................sss...........zyyyyyyyzzyyyyyxxxwwwwwwwvvvuuuttttt.tttuuuuuuttssrrrqqqpp......
(PID.TID 0000.0001)     25 ................tttu...vvv...zyxxzzyyyyyyyyyyyxxxwwwwwwwvvvuuutttuu...tuuuuutttssrrrqqpp......
(PID.TID 0000.0001)     24 ..............tuttuuu.vvvv...zyy.+zyyyyyyyyyxxxwwwwwwwwvvvvuuuuuuuuuuu.uuuutttsssrrrqqqq......
(PID.TID 0000.0001)     23 ..............uuuuuvv.vvvv...zyy..zxxxxxxxxxxwwwwwwwwwvvvvuuuuuuuuuuuuu....tttssssrrrrrr......
(PID.TID 0000.0001)     22 srr...........uuuuuuvvvvvv...zz.zyyxwwwwwwxxxwwwwwwwwwwwwvvvvvvuuuuuuuuu......tssssssrrssssrr.
(PID.TID 0000.0001)     21 rrrrr........vvuuuuuuuvvvvw.....zyyxxxxxxxxxxxxwwwxxwwwwwwvvvvvvuuuuuutt........tsssssssssrrrr
(PID.TID 0000.0001)     20 rrrrr.......wvvvuuuuuuuvvvv......y.zzzzyyxxxxxxxxxxxwwwwwvvvuuuuuuttuttt.........ttssssssrrrrr
(PID.TID 0000.0001)     19 qqqrr.......wvvuuttuuuvuvvvvv...xxx.....yyyyyxxxxxxxxwwwvvvuuuuttttttttt...........tssrrrqqqqr
(PID.TID 0000.0001)     18 qqqqq.......wwwvuuuuvvvvvvvvvvwwxxx...yzyyyyyyyxxxxxxxwwvvvvuuuttttttttss..........tssrrqqqqqq
(PID.TID 0000.0001)     17 qqqqq.......x.ywvvvvwwvwwvvvwwwww.....yyxxxxxxxxxxxxxxxwwwvvvvvuuutttttst.........uutssrqqqqqq
(PID.TID 0000.0001)     16 rrqqq......zx.yxwwwwwwwwwvvvvvvw.......xxxxxxxxxxxxxxxxxwwwwwwvvvuuuuuttss........uutttssrrrqq
(PID.TID 0000.0001)     15 srrqqp....xxw.wxwwwwwwvvwvvuuuv.........wwwxxxxxxxxxxxxxxxxxxwwwvvuuuuttssr......tuuttuttssrrq
(PID.TID 0000.0001)     14 tssrqp....xxwuwwwwwwwvuuvvuttst.........wwwwwwwwwwwwwwxxxxxxxxxwwvvvvuuttss.....stuuuuuuuttssr
(PID.TID 0000.0001)     13 utssrp....wxwwwwvvvvvvuuvvutsss.........uvwwvvvvvvvvvvvwwwwwwxxwwwvvvuuttsr....rsttuuuuuvuutss
(PID.TID 0000.0001)     12 ttssrrqorsvxwvvvvvuuuuuuuuuttssrsssr....tuuuuttuuuutuuuuuuuvvvvvvvvuuuttsr.....rstttttuuuuttss
(PID.TID 0000.0001)     11 ssrrqqqrstuvvuuuuuututtttttsssrrsssss..sttttt.sttttsttuuuuuuuuuuvvvutttssr....pqrrrrrrssssssrr
(PID.TID 0000.0001)     10 qpppppoppqrrrqpqrrrqqrrrrrrrqqqqqqrrrr.rstttu.rsrsssttttuuutttttuuutssrrrs..sppqpooooppqqqqppp
(PID.TID 0000.0001)      9 mmmmmmlllmnmlkkklllkkmnnnnnnooooppqrsrqqrsss.trqrssstttttuuutsssttsrrqqqqp.oponnmllkkklmmmmmmm
(PID.TID 0000.0001)      8 hghhhhhgghiiiihhhikighijjjjjkkkllmnoppppqrsstqppqqqrrsssssssrrrrrrrqqqqqqt.ponmljhghhhhhihhghh
(PID.TID 0000.0001)      7 edddccddeefffeeeffghfeeeeffffghhiiijjjijkmoponnnnnnnnnnoooooonnooooooooooqqoonljhgfeddeeeeeddd
(PID.TID 0000.0001)      6 bbaaaabbcccccdddddeeedccdddddeeeeeeffeefghijkkkjjjjjjiiiijjjkkkkklllkkkllllkjihfedcccccccbbbaa
(PID.TID 0000.0001)      5 aaaaaabbbbbbbbbbccccccccbbbbcccccccccdddddeeefgggffeedccddefghhgghhhggggggfedcaaaaaaaaaaaaaaaa
(PID.TID 0000.0001)      4 aaaaaaaabbbbcccccccccccbbccccccccccbbbbbbbbbbcccccbbbbbbbccddddddeeeedddddde..-aaaaaaaaaaaaaaa
(PID.TID 0000.0001)      3 abbbbbbbbcbb............................bbbbbbbbbbbbbbbbbbbbbbccccccccccddd..bbaaaaaaaaaaaabbb
(PID.TID 0000.0001)      2 ............................................aaaabbbbbccccccccbcccc..dccc.....aaaaaaaaaaaa.....
(PID.TID 0000.0001)      1 ..............................................................................................
(PID.TID 0000.0001)      0 llkkkll.mmmmmmmmmmmmm..................................................................lllllkk
(PID.TID 0000.0001)     -1 llkkkllmllllllmm...ll.....................................................jjjj........mmllllkk
(PID.TID 0000.0001) // =======================================================
(PID.TID 0000.0001) // END OF FIELD                                          =
(PID.TID 0000.0001) // =======================================================
(PID.TID 0000.0001) 
(PID.TID 0000.0001)  MDS_WRITE_FIELD: it,rec,kS,kL,kH=      80     1  15   1  15 file=U.0000000080
(PID.TID 0000.0001)  MDS_WRITE_FIELD: it,rec,kS,kL,kH=      80     1  15   1  15 file=V.0000000080
(PID.TID 0000.0001)  MDS_WRITE_FIELD: it,rec,kS,kL,kH=      80     1  15   1  15 file=T.0000000080
(PID.TID 0000.0001)  MDS_WRITE_FIELD: it,rec,kS,kL,kH=      80     1  15   1  15 file=S.0000000080
(PID.TID 0000.0001)  MDS_WRITE_FIELD: it,rec,kS,kL,kH=      80     1   1   1   1 file=Eta.0000000080
(PID.TID 0000.0001)  MDS_WRITE_FIELD: it,rec,kS,kL,kH=      80     1  15   1  15 file=W.0000000080
(PID.TID 0000.0001)  MDS_WRITE_FIELD: it,rec,kS,kL,kH=      80     1  15   1  15 file=PH.0000000080
(PID.TID 0000.0001)  MDS_WRITE_FIELD: it,rec,kS,kL,kH=      80     1   1   1   1 file=PHL.0000000080
(PID.TID 0000.0001)  MDS_WRITE_FIELD: it,rec,kS,kL,kH=      80     1   1   1   1 file=ETAtave.0000000080
(PID.TID 0000.0001)  MDS_WRITE_FIELD: it,rec,kS,kL,kH=      80     1  15   1  15 file=Ttave.0000000080
(PID.TID 0000.0001)  MDS_WRITE_FIELD: it,rec,kS,kL,kH=      80     1  15   1  15 file=Stave.0000000080
(PID.TID 0000.0001)  MDS_WRITE_FIELD: it,rec,kS,kL,kH=      80     1  15   1  15 file=uVeltave.0000000080
(PID.TID 0000.0001)  MDS_WRITE_FIELD: it,rec,kS,kL,kH=      80     1  15   1  15 file=vVeltave.0000000080
(PID.TID 0000.0001)  MDS_WRITE_FIELD: it,rec,kS,kL,kH=      80     1  15   1  15 file=wVeltave.0000000080
(PID.TID 0000.0001)  MDS_WRITE_FIELD: it,rec,kS,kL,kH=      80     1   1   1   1 file=Eta2tave.0000000080
(PID.TID 0000.0001)  MDS_WRITE_FIELD: it,rec,kS,kL,kH=      80     1  15   1  15 file=UTtave.0000000080
(PID.TID 0000.0001)  MDS_WRITE_FIELD: it,rec,kS,kL,kH=      80     1  15   1  15 file=VTtave.0000000080
(PID.TID 0000.0001)  MDS_WRITE_FIELD: it,rec,kS,kL,kH=      80     1  15   1  15 file=WTtave.0000000080
(PID.TID 0000.0001)  MDS_WRITE_FIELD: it,rec,kS,kL,kH=      80     1  15   1  15 file=UStave.0000000080
(PID.TID 0000.0001)  MDS_WRITE_FIELD: it,rec,kS,kL,kH=      80     1  15   1  15 file=VStave.0000000080
(PID.TID 0000.0001)  MDS_WRITE_FIELD: it,rec,kS,kL,kH=      80     1  15   1  15 file=WStave.0000000080
(PID.TID 0000.0001)  MDS_WRITE_FIELD: it,rec,kS,kL,kH=      80     1  15   1  15 file=TTtave.0000000080
(PID.TID 0000.0001)  MDS_WRITE_FIELD: it,rec,kS,kL,kH=      80     1  15   1  15 file=UUtave.0000000080
(PID.TID 0000.0001)  MDS_WRITE_FIELD: it,rec,kS,kL,kH=      80     1  15   1  15 file=VVtave.0000000080
(PID.TID 0000.0001)  MDS_WRITE_FIELD: it,rec,kS,kL,kH=      80     1  15   1  15 file=UVtave.0000000080
(PID.TID 0000.0001)  MDS_WRITE_FIELD: it,rec,kS,kL,kH=      80     1  15   1  15 file=Tdiftave.0000000080
(PID.TID 0000.0001)  MDS_WRITE_FIELD: it,rec,kS,kL,kH=      80     1  15   1  15 file=PhHytave.0000000080
(PID.TID 0000.0001)  MDS_WRITE_FIELD: it,rec,kS,kL,kH=      80     1   1   1   1 file=PHLtave.0000000080
(PID.TID 0000.0001)  MDS_WRITE_FIELD: it,rec,kS,kL,kH=      80     1   1   1   1 file=uFluxtave.0000000080
(PID.TID 0000.0001)  MDS_WRITE_FIELD: it,rec,kS,kL,kH=      80     1   1   1   1 file=vFluxtave.0000000080
(PID.TID 0000.0001)  MDS_WRITE_FIELD: it,rec,kS,kL,kH=      80     1   1   1   1 file=tFluxtave.0000000080
(PID.TID 0000.0001)  MDS_WRITE_FIELD: it,rec,kS,kL,kH=      80     1   1   1   1 file=sFluxtave.0000000080
(PID.TID 0000.0001)  MDS_WRITE_FIELD: it,rec,kS,kL,kH=      80     1   1   1   1 file=PHL2tave.0000000080
(PID.TID 0000.0001)  MDS_WRITE_FIELD: it,rec,kS,kL,kH=      80     1  15   1  15 file=Convtave.0000000080
(PID.TID 0000.0001) // Time-average data written, t-step        80
(PID.TID 0000.0001) 
(PID.TID 0000.0001)  MDS_WRITE_FIELD: it,rec,kS,kL,kH=      80     1  15   1  15 file=GM_Kwx-T.0000000080
(PID.TID 0000.0001)  MDS_WRITE_FIELD: it,rec,kS,kL,kH=      80     1  15   1  15 file=GM_Kwy-T.0000000080
(PID.TID 0000.0001)  MDS_WRITE_FIELD: it,rec,kS,kL,kH=      80     1  15   1  15 file=GM_Kwz-T.0000000080
(PID.TID 0000.0001)  MDS_WRITE_FIELD: it,rec,kS,kL,kH=      80     1  15   1  15 file=pickup_cd.0000000080
(PID.TID 0000.0001)  MDS_WRITE_FIELD: it,rec,kS,kL,kH=      80     2  15   1  15 file=pickup_cd.0000000080
(PID.TID 0000.0001)  MDS_WRITE_FIELD: it,rec,kS,kL,kH=      80     3  15   1  15 file=pickup_cd.0000000080
(PID.TID 0000.0001)  MDS_WRITE_FIELD: it,rec,kS,kL,kH=      80     4  15   1  15 file=pickup_cd.0000000080
(PID.TID 0000.0001)  MDS_WRITE_FIELD: it,rec,kS,kL,kH=      80    61   1   1   1 file=pickup_cd.0000000080
(PID.TID 0000.0001)  MDS_WRITE_FIELD: it,rec,kS,kL,kH=      80    -1  15   1  15 file=pickup.0000000080
(PID.TID 0000.0001)  MDS_WRITE_FIELD: it,rec,kS,kL,kH=      80    -2  15   1  15 file=pickup.0000000080
(PID.TID 0000.0001)  MDS_WRITE_FIELD: it,rec,kS,kL,kH=      80    -3  15   1  15 file=pickup.0000000080
(PID.TID 0000.0001)  MDS_WRITE_FIELD: it,rec,kS,kL,kH=      80    -4  15   1  15 file=pickup.0000000080
(PID.TID 0000.0001)  MDS_WRITE_FIELD: it,rec,kS,kL,kH=      80    -5  15   1  15 file=pickup.0000000080
(PID.TID 0000.0001)  MDS_WRITE_FIELD: it,rec,kS,kL,kH=      80    -6  15   1  15 file=pickup.0000000080
(PID.TID 0000.0001)  MDS_WRITE_FIELD: it,rec,kS,kL,kH=      80    -7  15   1  15 file=pickup.0000000080
(PID.TID 0000.0001)  MDS_WRITE_FIELD: it,rec,kS,kL,kH=      80    -8  15   1  15 file=pickup.0000000080
(PID.TID 0000.0001)  MDS_WRITE_FIELD: it,rec,kS,kL,kH=      80  -121   1   1   1 file=pickup.0000000080
(PID.TID 0000.0001)  MDS_WRITE_FIELD: it,rec,kS,kL,kH=      80  -122   1   1   1 file=pickup.0000000080
(PID.TID 0000.0001)  MDS_WRITE_FIELD: it,rec,kS,kL,kH=      80  -123   1   1   1 file=pickup.0000000080
(PID.TID 0000.0001) %CHECKPOINT        80 0000000080
(PID.TID 0000.0001)  MDS_WRITE_FIELD: it,rec,kS,kL,kH=      80     1   1   1   1 file=ETAN_forecast.0000000080
(PID.TID 0000.0001)  MDS_WRITE_FIELD: it,rec,kS,kL,kH=      80     1  15   1  15 file=THETA_forecast.0000000080
(PID.TID 0000.0001)  MDS_WRITE_FIELD: it,rec,kS,kL,kH=      80     1  15   1  15 file=SALT_forecast.0000000080
(PID.TID 0000.0001)  MDS_WRITE_FIELD: it,rec,kS,kL,kH=      80     1  15   1  15 file=UVEL_forecast.0000000080
(PID.TID 0000.0001)  MDS_WRITE_FIELD: it,rec,kS,kL,kH=      80     1  15   1  15 file=VVEL_forecast.0000000080
(PID.TID 0000.0001)  MDS_WRITE_FIELD: it,rec,kS,kL,kH=      80     1   1   1   1 file=ETAN_analysis.0000000080
(PID.TID 0000.0001)  MDS_WRITE_FIELD: it,rec,kS,kL,kH=      80     1  15   1  15 file=THETA_analysis.0000000080
(PID.TID 0000.0001)  MDS_WRITE_FIELD: it,rec,kS,kL,kH=      80     1  15   1  15 file=SALT_analysis.0000000080
(PID.TID 0000.0001)  MDS_WRITE_FIELD: it,rec,kS,kL,kH=      80     1  15   1  15 file=UVEL_analysis.0000000080
(PID.TID 0000.0001)  MDS_WRITE_FIELD: it,rec,kS,kL,kH=      80     1  15   1  15 file=VVEL_analysis.0000000080
 EXTERNAL_FIELDS_LOAD,        80 : iP,iLd,i0,i1=    3    4    3    4 ; Wght=  0.8333333333  0.1666666667
 EXTERNAL_FIELDS_LOAD: (fu0,1),fu,fv= -2.7199E-02 -3.7252E-02 -2.8874E-02 -6.3511E-03
 EXTERNAL_FIELDS_LOAD: SST,SSS,Q,E-P= -1.4736E-01  3.4577E+01  1.9685E+02  8.8622E-06
DEBUG_STATS_RL:          Uvel (THERMODYNAMICS)  min= -1.27998775162019E-01
DEBUG_STATS_RL:          Uvel (THERMODYNAMICS)  max=  1.48076318303012E-01
DEBUG_STATS_RL:          Uvel (THERMODYNAMICS) mean=  6.22802236278831E-03
DEBUG_STATS_RL:          Uvel (THERMODYNAMICS) S.D.=  2.21557564699241E-02
DEBUG_STATS_RL:          Vvel (THERMODYNAMICS)  min= -7.68343666854026E-02
DEBUG_STATS_RL:          Vvel (THERMODYNAMICS)  max=  1.25094812578014E-01
DEBUG_STATS_RL:          Vvel (THERMODYNAMICS) mean=  1.03967090872069E-03
DEBUG_STATS_RL:          Vvel (THERMODYNAMICS) S.D.=  1.30894346316110E-02
DEBUG_STATS_RL:          Wvel (THERMODYNAMICS)  min= -6.51675124933172E-05
DEBUG_STATS_RL:          Wvel (THERMODYNAMICS)  max=  1.55731312456930E-04
DEBUG_STATS_RL:          Wvel (THERMODYNAMICS) mean=  6.21554439531558E-09
DEBUG_STATS_RL:          Wvel (THERMODYNAMICS) S.D.=  8.77276781445263E-06
DEBUG_STATS_RL:         Theta (THERMODYNAMICS)  min= -1.94256283947006E+00
DEBUG_STATS_RL:         Theta (THERMODYNAMICS)  max=  3.10515065462095E+01
DEBUG_STATS_RL:         Theta (THERMODYNAMICS) mean=  3.22139936512533E+00
DEBUG_STATS_RL:         Theta (THERMODYNAMICS) S.D.=  5.88701475652530E+00
DEBUG_STATS_RL:          Salt (THERMODYNAMICS)  min= -3.12250225675825E-17
DEBUG_STATS_RL:          Salt (THERMODYNAMICS)  max=  3.74617177276201E+01
DEBUG_STATS_RL:          Salt (THERMODYNAMICS) mean=  1.88447565320829E+01
DEBUG_STATS_RL:          Salt (THERMODYNAMICS) S.D.=  1.73003059599320E+01
DEBUG_STATS_RL:         GtNm1 (THERMODYNAMICS)  min= -4.09122775004592E-06
DEBUG_STATS_RL:         GtNm1 (THERMODYNAMICS)  max=  2.09718811654658E-06
DEBUG_STATS_RL:         GtNm1 (THERMODYNAMICS) mean=  3.81923807859172E-10
DEBUG_STATS_RL:         GtNm1 (THERMODYNAMICS) S.D.=  1.40884141883996E-07
DEBUG_STATS_RL:         GsNm1 (THERMODYNAMICS)  min= -4.00855828798196E-07
DEBUG_STATS_RL:         GsNm1 (THERMODYNAMICS)  max=  2.60904364124344E-07
DEBUG_STATS_RL:         GsNm1 (THERMODYNAMICS) mean=  3.75483394294814E-11
DEBUG_STATS_RL:         GsNm1 (THERMODYNAMICS) S.D.=  1.38156146134981E-08
DEBUG_STATS_RL:                EtaN (DYNAMICS)  min= -1.87803737895616E+00
DEBUG_STATS_RL:                EtaN (DYNAMICS)  max=  9.00695202338169E-01
DEBUG_STATS_RL:                EtaN (DYNAMICS) mean= -1.87512785544315E-01
DEBUG_STATS_RL:                EtaN (DYNAMICS) S.D.=  7.20173487721594E-01
DEBUG_STATS_RL:                Uvel (DYNAMICS)  min= -1.27998775162019E-01
DEBUG_STATS_RL:                Uvel (DYNAMICS)  max=  1.48076318303012E-01
DEBUG_STATS_RL:                Uvel (DYNAMICS) mean=  6.22802236278831E-03
DEBUG_STATS_RL:                Uvel (DYNAMICS) S.D.=  2.21557564699241E-02
DEBUG_STATS_RL:                Vvel (DYNAMICS)  min= -7.68343666854026E-02
DEBUG_STATS_RL:                Vvel (DYNAMICS)  max=  1.25094812578014E-01
DEBUG_STATS_RL:                Vvel (DYNAMICS) mean=  1.03967090872069E-03
DEBUG_STATS_RL:                Vvel (DYNAMICS) S.D.=  1.30894346316110E-02
DEBUG_STATS_RL:                Wvel (DYNAMICS)  min= -6.51675124933172E-05
DEBUG_STATS_RL:                Wvel (DYNAMICS)  max=  1.55731312456930E-04
DEBUG_STATS_RL:                Wvel (DYNAMICS) mean=  6.21554439531558E-09
DEBUG_STATS_RL:                Wvel (DYNAMICS) S.D.=  8.77276781445263E-06
DEBUG_STATS_RL:               Theta (DYNAMICS)  min= -1.94256283947006E+00
DEBUG_STATS_RL:               Theta (DYNAMICS)  max=  3.10515065462095E+01
DEBUG_STATS_RL:               Theta (DYNAMICS) mean=  3.22139936512533E+00
DEBUG_STATS_RL:               Theta (DYNAMICS) S.D.=  5.88701475652530E+00
DEBUG_STATS_RL:                Salt (DYNAMICS)  min= -3.12250225675825E-17
DEBUG_STATS_RL:                Salt (DYNAMICS)  max=  3.74617177276201E+01
DEBUG_STATS_RL:                Salt (DYNAMICS) mean=  1.88447565320829E+01
DEBUG_STATS_RL:                Salt (DYNAMICS) S.D.=  1.73003059599320E+01
DEBUG_STATS_RL:                  Gu (DYNAMICS)  min= -1.27123865569617E-01
DEBUG_STATS_RL:                  Gu (DYNAMICS)  max=  1.55707301179158E-01
DEBUG_STATS_RL:                  Gu (DYNAMICS) mean=  6.13406754974790E-03
DEBUG_STATS_RL:                  Gu (DYNAMICS) S.D.=  2.25023575577972E-02
DEBUG_STATS_RL:                  Gv (DYNAMICS)  min= -7.53845214110637E-02
DEBUG_STATS_RL:                  Gv (DYNAMICS)  max=  1.24961717441385E-01
DEBUG_STATS_RL:                  Gv (DYNAMICS) mean=  3.67819619277280E-03
DEBUG_STATS_RL:                  Gv (DYNAMICS) S.D.=  1.46549104035558E-02
DEBUG_STATS_RL:               GuNm1 (DYNAMICS)  min= -9.88633568244720E-06
DEBUG_STATS_RL:               GuNm1 (DYNAMICS)  max=  9.25755959956672E-06
DEBUG_STATS_RL:               GuNm1 (DYNAMICS) mean=  8.46752155401732E-09
DEBUG_STATS_RL:               GuNm1 (DYNAMICS) S.D.=  1.21962322621896E-06
DEBUG_STATS_RL:               GvNm1 (DYNAMICS)  min= -9.62205894017153E-06
DEBUG_STATS_RL:               GvNm1 (DYNAMICS)  max=  1.55382678006054E-05
DEBUG_STATS_RL:               GvNm1 (DYNAMICS) mean=  7.37231118449465E-07
DEBUG_STATS_RL:               GvNm1 (DYNAMICS) S.D.=  2.61157070541015E-06
DEBUG_STATS_RL:               GtNm1 (DYNAMICS)  min= -4.09122775004592E-06
DEBUG_STATS_RL:               GtNm1 (DYNAMICS)  max=  2.09718811654658E-06
DEBUG_STATS_RL:               GtNm1 (DYNAMICS) mean=  3.81923807859172E-10
DEBUG_STATS_RL:               GtNm1 (DYNAMICS) S.D.=  1.40884141883996E-07
DEBUG_STATS_RL:               GsNm1 (DYNAMICS)  min= -4.00855828798196E-07
DEBUG_STATS_RL:               GsNm1 (DYNAMICS)  max=  2.60904364124344E-07
DEBUG_STATS_RL:               GsNm1 (DYNAMICS) mean=  3.75483394294814E-11
DEBUG_STATS_RL:               GsNm1 (DYNAMICS) S.D.=  1.38156146134981E-08
DEBUG_STATS_RL:    cg2d_b (SOLVE_FOR_PRESSURE)  min= -2.57391212657198E+04
DEBUG_STATS_RL:    cg2d_b (SOLVE_FOR_PRESSURE)  max=  2.67219062586699E+04
DEBUG_STATS_RL:    cg2d_b (SOLVE_FOR_PRESSURE) mean=  5.29910929113800E+00
DEBUG_STATS_RL:    cg2d_b (SOLVE_FOR_PRESSURE) S.D.=  3.91118988678334E+03
 cg2d: Sum(rhs),rhsMax =   4.59077952382416E-01  1.75516634898832E+00
(PID.TID 0000.0001)  cg2d: iter=     1 ; resid.=  5.61841485007174E-02
(PID.TID 0000.0001)  cg2d: iter=     2 ; resid.=  2.84150388712753E-02
(PID.TID 0000.0001)  cg2d: iter=     3 ; resid.=  1.92460244610120E-02
(PID.TID 0000.0001)  cg2d: iter=     4 ; resid.=  1.76870280248986E-02
(PID.TID 0000.0001)  cg2d: iter=     5 ; resid.=  1.67407365531023E-02
(PID.TID 0000.0001)  cg2d: iter=     6 ; resid.=  1.44443548206066E-02
(PID.TID 0000.0001)  cg2d: iter=     7 ; resid.=  1.33544703215532E-02
(PID.TID 0000.0001)  cg2d: iter=     8 ; resid.=  1.20388314984217E-02
(PID.TID 0000.0001)  cg2d: iter=     9 ; resid.=  9.82442098333964E-03
(PID.TID 0000.0001)  cg2d: iter=    10 ; resid.=  8.14725267752182E-03
(PID.TID 0000.0001)  cg2d: iter=    11 ; resid.=  6.50887001995308E-03
(PID.TID 0000.0001)  cg2d: iter=    12 ; resid.=  5.67229377939144E-03
(PID.TID 0000.0001)  cg2d: iter=    13 ; resid.=  4.73300993737824E-03
(PID.TID 0000.0001)  cg2d: iter=    14 ; resid.=  3.94969130950679E-03
(PID.TID 0000.0001)  cg2d: iter=    15 ; resid.=  3.40699224479700E-03
(PID.TID 0000.0001)  cg2d: iter=    16 ; resid.=  2.70459651678584E-03
(PID.TID 0000.0001)  cg2d: iter=    17 ; resid.=  2.28108291902232E-03
(PID.TID 0000.0001)  cg2d: iter=    18 ; resid.=  1.97726117965541E-03
(PID.TID 0000.0001)  cg2d: iter=    19 ; resid.=  1.72587451781029E-03
(PID.TID 0000.0001)  cg2d: iter=    20 ; resid.=  1.33809669052704E-03
(PID.TID 0000.0001)  cg2d: iter=    21 ; resid.=  1.00537318477570E-03
(PID.TID 0000.0001)  cg2d: iter=    22 ; resid.=  8.10633080119812E-04
(PID.TID 0000.0001)  cg2d: iter=    23 ; resid.=  7.08908362825469E-04
(PID.TID 0000.0001)  cg2d: iter=    24 ; resid.=  6.17227094154997E-04
(PID.TID 0000.0001)  cg2d: iter=    25 ; resid.=  5.53050129773229E-04
(PID.TID 0000.0001)  cg2d: iter=    26 ; resid.=  4.83934851187560E-04
(PID.TID 0000.0001)  cg2d: iter=    27 ; resid.=  4.23794483329721E-04
(PID.TID 0000.0001)  cg2d: iter=    28 ; resid.=  3.64487927608928E-04
(PID.TID 0000.0001)  cg2d: iter=    29 ; resid.=  3.02827111935965E-04
(PID.TID 0000.0001)  cg2d: iter=    30 ; resid.=  2.59125882791055E-04
(PID.TID 0000.0001)  cg2d: iter=    31 ; resid.=  2.14095488431803E-04
(PID.TID 0000.0001)  cg2d: iter=    32 ; resid.=  1.64129799662676E-04
(PID.TID 0000.0001)  cg2d: iter=    33 ; resid.=  1.32226725362177E-04
(PID.TID 0000.0001)  cg2d: iter=    34 ; resid.=  9.88726643821047E-05
(PID.TID 0000.0001)  cg2d: iter=    35 ; resid.=  7.21147211764749E-05
(PID.TID 0000.0001)  cg2d: iter=    36 ; resid.=  5.29779360780373E-05
(PID.TID 0000.0001)  cg2d: iter=    37 ; resid.=  4.37493835809388E-05
(PID.TID 0000.0001)  cg2d: iter=    38 ; resid.=  3.97453002387184E-05
(PID.TID 0000.0001)  cg2d: iter=    39 ; resid.=  3.64575120789454E-05
(PID.TID 0000.0001)  cg2d: iter=    40 ; resid.=  3.42716862898243E-05
(PID.TID 0000.0001)  cg2d: iter=    41 ; resid.=  2.85202175687492E-05
(PID.TID 0000.0001)  cg2d: iter=    42 ; resid.=  2.61276120967660E-05
(PID.TID 0000.0001)  cg2d: iter=    43 ; resid.=  2.33153744290405E-05
(PID.TID 0000.0001)  cg2d: iter=    44 ; resid.=  2.09984401038458E-05
(PID.TID 0000.0001)  cg2d: iter=    45 ; resid.=  1.81523471779932E-05
(PID.TID 0000.0001)  cg2d: iter=    46 ; resid.=  1.40831129318872E-05
(PID.TID 0000.0001)  cg2d: iter=    47 ; resid.=  1.03532766506199E-05
(PID.TID 0000.0001)  cg2d: iter=    48 ; resid.=  7.43555800612807E-06
(PID.TID 0000.0001)  cg2d: iter=    49 ; resid.=  5.67981364717385E-06
(PID.TID 0000.0001)  cg2d: iter=    50 ; resid.=  4.30125023701001E-06
(PID.TID 0000.0001)  cg2d: iter=    51 ; resid.=  3.52735969461650E-06
(PID.TID 0000.0001)  cg2d: iter=    52 ; resid.=  2.92697975690243E-06
(PID.TID 0000.0001)  cg2d: iter=    53 ; resid.=  2.47633197055895E-06
(PID.TID 0000.0001)  cg2d: iter=    54 ; resid.=  2.00629143649108E-06
(PID.TID 0000.0001)  cg2d: iter=    55 ; resid.=  1.61479092679315E-06
(PID.TID 0000.0001)  cg2d: iter=    56 ; resid.=  1.28555219978550E-06
(PID.TID 0000.0001)  cg2d: iter=    57 ; resid.=  1.05978128953018E-06
(PID.TID 0000.0001)  cg2d: iter=    58 ; resid.=  8.73559413665338E-07
(PID.TID 0000.0001)  cg2d: iter=    59 ; resid.=  6.70182174780973E-07
(PID.TID 0000.0001)  cg2d: iter=    60 ; resid.=  4.99161485941230E-07
(PID.TID 0000.0001)  cg2d: iter=    61 ; resid.=  3.81144994128623E-07
(PID.TID 0000.0001)  cg2d: iter=    62 ; resid.=  3.18390077121149E-07
(PID.TID 0000.0001)  cg2d: iter=    63 ; resid.=  2.64868920944622E-07
(PID.TID 0000.0001)  cg2d: iter=    64 ; resid.=  2.06754296489253E-07
(PID.TID 0000.0001)  cg2d: iter=    65 ; resid.=  1.67862380225077E-07
(PID.TID 0000.0001)  cg2d: iter=    66 ; resid.=  1.34921546707775E-07
(PID.TID 0000.0001)  cg2d: iter=    67 ; resid.=  1.10299590606858E-07
(PID.TID 0000.0001)  cg2d: iter=    68 ; resid.=  9.61532823161714E-08
(PID.TID 0000.0001)  cg2d: iter=    69 ; resid.=  7.85723870465008E-08
(PID.TID 0000.0001)  cg2d: iter=    70 ; resid.=  6.48863613201130E-08
(PID.TID 0000.0001)  cg2d: iter=    71 ; resid.=  5.11079401433628E-08
(PID.TID 0000.0001)  cg2d: iter=    72 ; resid.=  4.10330010895576E-08
(PID.TID 0000.0001)  cg2d: iter=    73 ; resid.=  3.29958061843616E-08
(PID.TID 0000.0001)  cg2d: iter=    74 ; resid.=  2.80063285086725E-08
(PID.TID 0000.0001)  cg2d: iter=    75 ; resid.=  2.29837318476543E-08
(PID.TID 0000.0001)  cg2d: iter=    76 ; resid.=  1.93582817219718E-08
(PID.TID 0000.0001)  cg2d: iter=    77 ; resid.=  1.60379027499817E-08
(PID.TID 0000.0001)  cg2d: iter=    78 ; resid.=  1.40665509942464E-08
(PID.TID 0000.0001)  cg2d: iter=    79 ; resid.=  1.15132141153766E-08
(PID.TID 0000.0001)  cg2d: iter=    80 ; resid.=  9.93969515498473E-09
(PID.TID 0000.0001)  cg2d: iter=    81 ; resid.=  9.03119033620265E-09
(PID.TID 0000.0001)  cg2d: iter=    82 ; resid.=  7.29932699719121E-09
(PID.TID 0000.0001)  cg2d: iter=    83 ; resid.=  5.86170286726136E-09
(PID.TID 0000.0001)  cg2d: iter=    84 ; resid.=  4.74001369506700E-09
(PID.TID 0000.0001)  cg2d: iter=    85 ; resid.=  3.52356443905018E-09
(PID.TID 0000.0001)  cg2d: iter=    86 ; resid.=  2.72997635386229E-09
(PID.TID 0000.0001)  cg2d: iter=    87 ; resid.=  2.09378636737345E-09
(PID.TID 0000.0001)  cg2d: iter=    88 ; resid.=  1.53744441567707E-09
(PID.TID 0000.0001)  cg2d: iter=    89 ; resid.=  1.19111928783968E-09
(PID.TID 0000.0001)  cg2d: iter=    90 ; resid.=  9.86831766161589E-10
(PID.TID 0000.0001)  cg2d: iter=    91 ; resid.=  8.17305560440121E-10
(PID.TID 0000.0001)  cg2d: iter=    92 ; resid.=  7.01746586638888E-10
(PID.TID 0000.0001)  cg2d: iter=    93 ; resid.=  5.61810937628223E-10
(PID.TID 0000.0001)  cg2d: iter=    94 ; resid.=  4.33422094434235E-10
(PID.TID 0000.0001)  cg2d: iter=    95 ; resid.=  3.51812158645900E-10
(PID.TID 0000.0001)  cg2d: iter=    96 ; resid.=  2.83783204717813E-10
(PID.TID 0000.0001)  cg2d: iter=    97 ; resid.=  2.23805630797855E-10
(PID.TID 0000.0001)  cg2d: iter=    98 ; resid.=  1.70018291265825E-10
(PID.TID 0000.0001)  cg2d: iter=    99 ; resid.=  1.24283821694637E-10
(PID.TID 0000.0001)  cg2d: iter=   100 ; resid.=  1.07487564590672E-10
(PID.TID 0000.0001)  cg2d: iter=   101 ; resid.=  9.75661127983560E-11
(PID.TID 0000.0001)  cg2d: iter=   102 ; resid.=  8.53952964398025E-11
(PID.TID 0000.0001)  cg2d: iter=   103 ; resid.=  6.61230393243491E-11
(PID.TID 0000.0001)  cg2d: iter=   104 ; resid.=  5.16123255514444E-11
(PID.TID 0000.0001)  cg2d: iter=   105 ; resid.=  4.09352001355058E-11
(PID.TID 0000.0001)  cg2d: iter=   106 ; resid.=  3.30178815386035E-11
(PID.TID 0000.0001)  cg2d: iter=   107 ; resid.=  2.71340893567225E-11
(PID.TID 0000.0001)  cg2d: iter=   108 ; resid.=  2.25289963803337E-11
(PID.TID 0000.0001)  cg2d: iter=   109 ; resid.=  1.80098308487048E-11
(PID.TID 0000.0001)  cg2d: iter=   110 ; resid.=  1.27287552184413E-11
(PID.TID 0000.0001)  cg2d: iter=   111 ; resid.=  9.93974669785571E-12
(PID.TID 0000.0001)  cg2d: iter=   112 ; resid.=  8.19414854971944E-12
(PID.TID 0000.0001)  cg2d: iter=   113 ; resid.=  6.40957610525984E-12
(PID.TID 0000.0001)  cg2d: iter=   114 ; resid.=  4.77953031649094E-12
(PID.TID 0000.0001)  cg2d: iter=   115 ; resid.=  3.53750108146631E-12
(PID.TID 0000.0001)  cg2d: iter=   116 ; resid.=  2.56972500717308E-12
(PID.TID 0000.0001)  cg2d: iter=   117 ; resid.=  1.97856568885303E-12
(PID.TID 0000.0001)  cg2d: iter=   118 ; resid.=  1.50239434309329E-12
(PID.TID 0000.0001)  cg2d: iter=   119 ; resid.=  1.12110620290275E-12
(PID.TID 0000.0001)  cg2d: iter=   120 ; resid.=  8.66607090993325E-13
(PID.TID 0000.0001)  cg2d: iter=   121 ; resid.=  6.73837778264481E-13
(PID.TID 0000.0001)  cg2d: iter=   122 ; resid.=  5.20830200169993E-13
(PID.TID 0000.0001)  cg2d: iter=   123 ; resid.=  4.09340764691311E-13
(PID.TID 0000.0001)  cg2d: iter=   124 ; resid.=  3.23410926392847E-13
(PID.TID 0000.0001)  cg2d: iter=   125 ; resid.=  2.40438755307025E-13
(PID.TID 0000.0001)  cg2d: iter=   126 ; resid.=  1.90188736993097E-13
(PID.TID 0000.0001)  cg2d: iter=   127 ; resid.=  1.41719730138705E-13
(PID.TID 0000.0001)  cg2d: iter=   128 ; resid.=  1.07855855158732E-13
(PID.TID 0000.0001)  cg2d: iter=   129 ; resid.=  7.43176089145281E-14
DEBUG_STATS_RL:    cg2d_x (SOLVE_FOR_PRESSURE)  min= -1.83943126146423E+01
DEBUG_STATS_RL:    cg2d_x (SOLVE_FOR_PRESSURE)  max=  8.81243579631854E+00
DEBUG_STATS_RL:    cg2d_x (SOLVE_FOR_PRESSURE) mean= -1.84174408283144E+00
DEBUG_STATS_RL:    cg2d_x (SOLVE_FOR_PRESSURE) S.D.=  7.07108472260159E+00
(PID.TID 0000.0001)      cg2d_init_res =   2.06473220831016E-01
(PID.TID 0000.0001)      cg2d_iters(min,last) =      -1     129
(PID.TID 0000.0001)      cg2d_last_res =   7.43176089145281E-14
(PID.TID 0000.0001) // =======================================================
(PID.TID 0000.0001) // Begin MONITOR dynamic field statistics
(PID.TID 0000.0001) // =======================================================
(PID.TID 0000.0001) %MON time_tsnumber                =                    81
(PID.TID 0000.0001) %MON time_secondsf                =   6.9984000000000E+06
(PID.TID 0000.0001) %MON dynstat_eta_max              =   8.9831149809557E-01
(PID.TID 0000.0001) %MON dynstat_eta_min              =  -1.8750573511358E+00
(PID.TID 0000.0001) %MON dynstat_eta_mean             =  -5.5289634774423E-03
(PID.TID 0000.0001) %MON dynstat_eta_sd               =   6.1879433441754E-01
(PID.TID 0000.0001) %MON dynstat_eta_del2             =   2.4612384812393E-03
(PID.TID 0000.0001) %MON dynstat_uvel_max             =   1.5046432162939E-01
(PID.TID 0000.0001) %MON dynstat_uvel_min             =  -1.2879355690087E-01
(PID.TID 0000.0001) %MON dynstat_uvel_mean            =   2.5854975022244E-03
(PID.TID 0000.0001) %MON dynstat_uvel_sd              =   1.3761539724256E-02
(PID.TID 0000.0001) %MON dynstat_uvel_del2            =   8.2993654383177E-05
(PID.TID 0000.0001) %MON dynstat_vvel_max             =   1.2354122002342E-01
(PID.TID 0000.0001) %MON dynstat_vvel_min             =  -7.7908664207067E-02
(PID.TID 0000.0001) %MON dynstat_vvel_mean            =   6.6493001787108E-06
(PID.TID 0000.0001) %MON dynstat_vvel_sd              =   7.9387673519969E-03
(PID.TID 0000.0001) %MON dynstat_vvel_del2            =   7.1453462360471E-05
(PID.TID 0000.0001) %MON dynstat_wvel_max             =   1.5040978532739E-04
(PID.TID 0000.0001) %MON dynstat_wvel_min             =  -6.3086636457373E-05
(PID.TID 0000.0001) %MON dynstat_wvel_mean            =  -1.2076289898044E-23
(PID.TID 0000.0001) %MON dynstat_wvel_sd              =   9.7656423766621E-06
(PID.TID 0000.0001) %MON dynstat_wvel_del2            =   9.7532883391759E-08
(PID.TID 0000.0001) %MON dynstat_theta_max            =   3.1051506546210E+01
(PID.TID 0000.0001) %MON dynstat_theta_min            =  -1.9425628394701E+00
(PID.TID 0000.0001) %MON dynstat_theta_mean           =   3.6242470441803E+00
(PID.TID 0000.0001) %MON dynstat_theta_sd             =   4.4278715400943E+00
(PID.TID 0000.0001) %MON dynstat_theta_del2           =   4.8421812872229E-03
(PID.TID 0000.0001) %MON dynstat_salt_max             =   3.7461717727620E+01
(PID.TID 0000.0001) %MON dynstat_salt_min             =   2.9918410423358E+01
(PID.TID 0000.0001) %MON dynstat_salt_mean            =   3.4717999033540E+01
(PID.TID 0000.0001) %MON dynstat_salt_sd              =   2.9658053454397E-01
(PID.TID 0000.0001) %MON dynstat_salt_del2            =   9.9313193926526E-04
(PID.TID 0000.0001) %MON dynstat_sst_max              =   3.1051506546210E+01
(PID.TID 0000.0001) %MON dynstat_sst_min              =  -1.9425628394701E+00
(PID.TID 0000.0001) %MON dynstat_sst_mean             =   1.9057184108170E+01
(PID.TID 0000.0001) %MON dynstat_sst_sd               =   9.1848531797262E+00
(PID.TID 0000.0001) %MON dynstat_sst_del2             =   2.8900943608945E-02
(PID.TID 0000.0001) %MON dynstat_sss_max              =   3.7461628563288E+01
(PID.TID 0000.0001) %MON dynstat_sss_min              =   2.9918410423358E+01
(PID.TID 0000.0001) %MON dynstat_sss_mean             =   3.4837395432253E+01
(PID.TID 0000.0001) %MON dynstat_sss_sd               =   9.8700225748017E-01
(PID.TID 0000.0001) %MON dynstat_sss_del2             =   8.1951061397487E-03
(PID.TID 0000.0001) %MON forcing_qnet_max             =   2.5098151652018E+02
(PID.TID 0000.0001) %MON forcing_qnet_min             =  -1.6171560923258E+02
(PID.TID 0000.0001) %MON forcing_qnet_mean            =  -5.2798838452964E+00
(PID.TID 0000.0001) %MON forcing_qnet_sd              =   4.2422430545569E+01
(PID.TID 0000.0001) %MON forcing_qnet_del2            =   8.1785036435017E-01
(PID.TID 0000.0001) %MON forcing_qsw_max              =   0.0000000000000E+00
(PID.TID 0000.0001) %MON forcing_qsw_min              =   0.0000000000000E+00
(PID.TID 0000.0001) %MON forcing_qsw_mean             =   0.0000000000000E+00
(PID.TID 0000.0001) %MON forcing_qsw_sd               =   0.0000000000000E+00
(PID.TID 0000.0001) %MON forcing_qsw_del2             =   0.0000000000000E+00
(PID.TID 0000.0001) %MON forcing_empmr_max            =   6.8627966716880E-05
(PID.TID 0000.0001) %MON forcing_empmr_min            =  -8.3338647982600E-05
(PID.TID 0000.0001) %MON forcing_empmr_mean           =   4.3848422954086E-07
(PID.TID 0000.0001) %MON forcing_empmr_sd             =   2.5959291357545E-05
(PID.TID 0000.0001) %MON forcing_empmr_del2           =   3.6379540965220E-07
(PID.TID 0000.0001) %MON forcing_fu_max               =   3.5326997439067E-01
(PID.TID 0000.0001) %MON forcing_fu_min               =  -3.9322178065777E-01
(PID.TID 0000.0001) %MON forcing_fu_mean              =   1.9820768815724E-02
(PID.TID 0000.0001) %MON forcing_fu_sd                =   1.0094744547946E-01
(PID.TID 0000.0001) %MON forcing_fu_del2              =   8.0814335674264E-04
(PID.TID 0000.0001) %MON forcing_fv_max               =   1.8282033999761E-01
(PID.TID 0000.0001) %MON forcing_fv_min               =  -1.7629306515058E-01
(PID.TID 0000.0001) %MON forcing_fv_mean              =  -7.3471920781794E-03
(PID.TID 0000.0001) %MON forcing_fv_sd                =   4.0771862552171E-02
(PID.TID 0000.0001) %MON forcing_fv_del2              =   4.6338645656999E-04
(PID.TID 0000.0001) %MON trAdv_CFL_u_max              =   4.1422803166683E-02
(PID.TID 0000.0001) %MON trAdv_CFL_v_max              =   2.4204876873917E-02
(PID.TID 0000.0001) %MON trAdv_CFL_w_max              =   3.4500475375074E-02
(PID.TID 0000.0001) %MON advcfl_uvel_max              =   4.1479871978504E-02
(PID.TID 0000.0001) %MON advcfl_vvel_max              =   2.4002077687593E-02
(PID.TID 0000.0001) %MON advcfl_wvel_max              =   3.5603850554210E-02
(PID.TID 0000.0001) %MON advcfl_W_hf_max              =   3.8221780742020E-02
(PID.TID 0000.0001) %MON pe_b_mean                    =   4.9001404509429E-04
(PID.TID 0000.0001) %MON ke_max                       =   1.1701334227371E-02
(PID.TID 0000.0001) %MON ke_mean                      =   1.1736946173912E-04
(PID.TID 0000.0001) %MON ke_vol                       =   1.3226782436723E+18
(PID.TID 0000.0001) %MON vort_r_min                   =  -3.6773472661255E-07
(PID.TID 0000.0001) %MON vort_r_max                   =   3.8733169862299E-07
(PID.TID 0000.0001) %MON vort_a_mean                  =  -2.5274807019137E-05
(PID.TID 0000.0001) %MON vort_a_sd                    =   7.3604704929595E-05
(PID.TID 0000.0001) %MON vort_p_mean                  =  -3.1845655322806E-05
(PID.TID 0000.0001) %MON vort_p_sd                    =   1.3162481255610E-04
(PID.TID 0000.0001) %MON surfExpan_theta_mean         =   1.3222310694500E-07
(PID.TID 0000.0001) %MON surfExpan_salt_mean          =   1.8454741781367E-08
(PID.TID 0000.0001) // =======================================================
(PID.TID 0000.0001) // End MONITOR dynamic field statistics
(PID.TID 0000.0001) // =======================================================
 EXTERNAL_FIELDS_LOAD,        81 : iP,iLd,i0,i1=    3    4    3    4 ; Wght=  0.8000000000  0.2000000000
 EXTERNAL_FIELDS_LOAD: (fu0,1),fu,fv= -2.7199E-02 -3.7252E-02 -2.9210E-02 -7.5057E-03
 EXTERNAL_FIELDS_LOAD: SST,SSS,Q,E-P= -1.4006E-01  3.4577E+01  1.9314E+02  8.8184E-06
DEBUG_STATS_RL:          Uvel (THERMODYNAMICS)  min= -1.28793556900869E-01
DEBUG_STATS_RL:          Uvel (THERMODYNAMICS)  max=  1.50464321629386E-01
DEBUG_STATS_RL:          Uvel (THERMODYNAMICS) mean=  6.22168762954077E-03
DEBUG_STATS_RL:          Uvel (THERMODYNAMICS) S.D.=  2.21116478051625E-02
DEBUG_STATS_RL:          Vvel (THERMODYNAMICS)  min= -7.79086642070665E-02
DEBUG_STATS_RL:          Vvel (THERMODYNAMICS)  max=  1.23541220023425E-01
DEBUG_STATS_RL:          Vvel (THERMODYNAMICS) mean=  1.04718200434500E-03
DEBUG_STATS_RL:          Vvel (THERMODYNAMICS) S.D.=  1.30294360680845E-02
DEBUG_STATS_RL:          Wvel (THERMODYNAMICS)  min= -6.30866364573733E-05
DEBUG_STATS_RL:          Wvel (THERMODYNAMICS)  max=  1.50409785327393E-04
DEBUG_STATS_RL:          Wvel (THERMODYNAMICS) mean=  4.86524768673387E-09
DEBUG_STATS_RL:          Wvel (THERMODYNAMICS) S.D.=  8.66317461703254E-06
DEBUG_STATS_RL:         Theta (THERMODYNAMICS)  min= -1.94152058954364E+00
DEBUG_STATS_RL:         Theta (THERMODYNAMICS)  max=  3.10730347492142E+01
DEBUG_STATS_RL:         Theta (THERMODYNAMICS) mean=  3.22135414822632E+00
DEBUG_STATS_RL:         Theta (THERMODYNAMICS) S.D.=  5.88733693768863E+00
DEBUG_STATS_RL:          Salt (THERMODYNAMICS)  min= -3.12250225675825E-17
DEBUG_STATS_RL:          Salt (THERMODYNAMICS)  max=  3.74624284225103E+01
DEBUG_STATS_RL:          Salt (THERMODYNAMICS) mean=  1.88447603303892E+01
DEBUG_STATS_RL:          Salt (THERMODYNAMICS) S.D.=  1.73003102585006E+01
DEBUG_STATS_RL:         GtNm1 (THERMODYNAMICS)  min= -3.91593237963094E-06
DEBUG_STATS_RL:         GtNm1 (THERMODYNAMICS)  max=  1.99175662402772E-06
DEBUG_STATS_RL:         GtNm1 (THERMODYNAMICS) mean=  5.02385055492382E-11
DEBUG_STATS_RL:         GtNm1 (THERMODYNAMICS) S.D.=  1.39854889109428E-07
DEBUG_STATS_RL:         GsNm1 (THERMODYNAMICS)  min= -4.94400106651289E-07
DEBUG_STATS_RL:         GsNm1 (THERMODYNAMICS)  max=  3.29749909054529E-07
DEBUG_STATS_RL:         GsNm1 (THERMODYNAMICS) mean=  2.29382028476770E-11
DEBUG_STATS_RL:         GsNm1 (THERMODYNAMICS) S.D.=  1.39114289736788E-08
DEBUG_STATS_RL:                EtaN (DYNAMICS)  min= -1.87505735113581E+00
DEBUG_STATS_RL:                EtaN (DYNAMICS)  max=  8.98311498095571E-01
DEBUG_STATS_RL:                EtaN (DYNAMICS) mean= -1.87741496720841E-01
DEBUG_STATS_RL:                EtaN (DYNAMICS) S.D.=  7.20803743384469E-01
DEBUG_STATS_RL:                Uvel (DYNAMICS)  min= -1.28793556900869E-01
DEBUG_STATS_RL:                Uvel (DYNAMICS)  max=  1.50464321629386E-01
DEBUG_STATS_RL:                Uvel (DYNAMICS) mean=  6.22168762954077E-03
DEBUG_STATS_RL:                Uvel (DYNAMICS) S.D.=  2.21116478051625E-02
DEBUG_STATS_RL:                Vvel (DYNAMICS)  min= -7.79086642070665E-02
DEBUG_STATS_RL:                Vvel (DYNAMICS)  max=  1.23541220023425E-01
DEBUG_STATS_RL:                Vvel (DYNAMICS) mean=  1.04718200434500E-03
DEBUG_STATS_RL:                Vvel (DYNAMICS) S.D.=  1.30294360680845E-02
DEBUG_STATS_RL:                Wvel (DYNAMICS)  min= -6.30866364573733E-05
DEBUG_STATS_RL:                Wvel (DYNAMICS)  max=  1.50409785327393E-04
DEBUG_STATS_RL:                Wvel (DYNAMICS) mean=  4.86524768673387E-09
DEBUG_STATS_RL:                Wvel (DYNAMICS) S.D.=  8.66317461703254E-06
DEBUG_STATS_RL:               Theta (DYNAMICS)  min= -1.94152058954364E+00
DEBUG_STATS_RL:               Theta (DYNAMICS)  max=  3.10730347492142E+01
DEBUG_STATS_RL:               Theta (DYNAMICS) mean=  3.22135414822632E+00
DEBUG_STATS_RL:               Theta (DYNAMICS) S.D.=  5.88733693768863E+00
DEBUG_STATS_RL:                Salt (DYNAMICS)  min= -3.12250225675825E-17
DEBUG_STATS_RL:                Salt (DYNAMICS)  max=  3.74624284225103E+01
DEBUG_STATS_RL:                Salt (DYNAMICS) mean=  1.88447603303892E+01
DEBUG_STATS_RL:                Salt (DYNAMICS) S.D.=  1.73003102585006E+01
DEBUG_STATS_RL:                  Gu (DYNAMICS)  min= -1.27895248469413E-01
DEBUG_STATS_RL:                  Gu (DYNAMICS)  max=  1.57407656605951E-01
DEBUG_STATS_RL:                  Gu (DYNAMICS) mean=  6.12740197099942E-03
DEBUG_STATS_RL:                  Gu (DYNAMICS) S.D.=  2.24497088911466E-02
DEBUG_STATS_RL:                  Gv (DYNAMICS)  min= -7.64313882766061E-02
DEBUG_STATS_RL:                  Gv (DYNAMICS)  max=  1.21634132928333E-01
DEBUG_STATS_RL:                  Gv (DYNAMICS) mean=  3.68472430301986E-03
DEBUG_STATS_RL:                  Gv (DYNAMICS) S.D.=  1.46134346749727E-02
DEBUG_STATS_RL:               GuNm1 (DYNAMICS)  min= -9.85484380443905E-06
DEBUG_STATS_RL:               GuNm1 (DYNAMICS)  max=  9.25179551525478E-06
DEBUG_STATS_RL:               GuNm1 (DYNAMICS) mean=  8.70097382291710E-09
DEBUG_STATS_RL:               GuNm1 (DYNAMICS) S.D.=  1.21996040720541E-06
DEBUG_STATS_RL:               GvNm1 (DYNAMICS)  min= -9.58012641893088E-06
DEBUG_STATS_RL:               GvNm1 (DYNAMICS)  max=  1.55125969741192E-05
DEBUG_STATS_RL:               GvNm1 (DYNAMICS) mean=  7.37427402769655E-07
DEBUG_STATS_RL:               GvNm1 (DYNAMICS) S.D.=  2.61047595003877E-06
DEBUG_STATS_RL:               GtNm1 (DYNAMICS)  min= -3.91593237963094E-06
DEBUG_STATS_RL:               GtNm1 (DYNAMICS)  max=  1.99175662402772E-06
DEBUG_STATS_RL:               GtNm1 (DYNAMICS) mean=  5.02385055492382E-11
DEBUG_STATS_RL:               GtNm1 (DYNAMICS) S.D.=  1.39854889109428E-07
DEBUG_STATS_RL:               GsNm1 (DYNAMICS)  min= -4.94400106651289E-07
DEBUG_STATS_RL:               GsNm1 (DYNAMICS)  max=  3.29749909054529E-07
DEBUG_STATS_RL:               GsNm1 (DYNAMICS) mean=  2.29382028476770E-11
DEBUG_STATS_RL:               GsNm1 (DYNAMICS) S.D.=  1.39114289736788E-08
DEBUG_STATS_RL:    cg2d_b (SOLVE_FOR_PRESSURE)  min= -2.58769402279746E+04
DEBUG_STATS_RL:    cg2d_b (SOLVE_FOR_PRESSURE)  max=  2.70195660864635E+04
DEBUG_STATS_RL:    cg2d_b (SOLVE_FOR_PRESSURE) mean=  5.33239566224918E+00
DEBUG_STATS_RL:    cg2d_b (SOLVE_FOR_PRESSURE) S.D.=  3.91421549156748E+03
 cg2d: Sum(rhs),rhsMax =   4.56872472289348E-01  1.77471744343988E+00
(PID.TID 0000.0001)  cg2d: iter=     1 ; resid.=  5.50539814681622E-02
(PID.TID 0000.0001)  cg2d: iter=     2 ; resid.=  2.75541935800795E-02
(PID.TID 0000.0001)  cg2d: iter=     3 ; resid.=  1.79049402862503E-02
(PID.TID 0000.0001)  cg2d: iter=     4 ; resid.=  1.58963998829387E-02
(PID.TID 0000.0001)  cg2d: iter=     5 ; resid.=  1.44445825015518E-02
(PID.TID 0000.0001)  cg2d: iter=     6 ; resid.=  1.22313928998116E-02
(PID.TID 0000.0001)  cg2d: iter=     7 ; resid.=  1.12751288014491E-02
(PID.TID 0000.0001)  cg2d: iter=     8 ; resid.=  1.03195358052707E-02
(PID.TID 0000.0001)  cg2d: iter=     9 ; resid.=  8.52775730249315E-03
(PID.TID 0000.0001)  cg2d: iter=    10 ; resid.=  7.11162806394627E-03
(PID.TID 0000.0001)  cg2d: iter=    11 ; resid.=  5.72307860434903E-03
(PID.TID 0000.0001)  cg2d: iter=    12 ; resid.=  4.95711942039679E-03
(PID.TID 0000.0001)  cg2d: iter=    13 ; resid.=  4.13538076917515E-03
(PID.TID 0000.0001)  cg2d: iter=    14 ; resid.=  3.41071250316557E-03
(PID.TID 0000.0001)  cg2d: iter=    15 ; resid.=  2.95354060694700E-03
(PID.TID 0000.0001)  cg2d: iter=    16 ; resid.=  2.34386707015736E-03
(PID.TID 0000.0001)  cg2d: iter=    17 ; resid.=  1.98020042193500E-03
(PID.TID 0000.0001)  cg2d: iter=    18 ; resid.=  1.72275230626022E-03
(PID.TID 0000.0001)  cg2d: iter=    19 ; resid.=  1.54395314965898E-03
(PID.TID 0000.0001)  cg2d: iter=    20 ; resid.=  1.21702573923162E-03
(PID.TID 0000.0001)  cg2d: iter=    21 ; resid.=  9.20791403178495E-04
(PID.TID 0000.0001)  cg2d: iter=    22 ; resid.=  7.40485160695501E-04
(PID.TID 0000.0001)  cg2d: iter=    23 ; resid.=  6.43884734724238E-04
(PID.TID 0000.0001)  cg2d: iter=    24 ; resid.=  5.58587962534449E-04
(PID.TID 0000.0001)  cg2d: iter=    25 ; resid.=  5.03900229170150E-04
(PID.TID 0000.0001)  cg2d: iter=    26 ; resid.=  4.35261428134341E-04
(PID.TID 0000.0001)  cg2d: iter=    27 ; resid.=  3.82015107204746E-04
(PID.TID 0000.0001)  cg2d: iter=    28 ; resid.=  3.27164435424872E-04
(PID.TID 0000.0001)  cg2d: iter=    29 ; resid.=  2.77636801609666E-04
(PID.TID 0000.0001)  cg2d: iter=    30 ; resid.=  2.38973197171123E-04
(PID.TID 0000.0001)  cg2d: iter=    31 ; resid.=  1.96644340486014E-04
(PID.TID 0000.0001)  cg2d: iter=    32 ; resid.=  1.52492084102898E-04
(PID.TID 0000.0001)  cg2d: iter=    33 ; resid.=  1.22747978317764E-04
(PID.TID 0000.0001)  cg2d: iter=    34 ; resid.=  9.21610097431430E-05
(PID.TID 0000.0001)  cg2d: iter=    35 ; resid.=  6.66901918414217E-05
(PID.TID 0000.0001)  cg2d: iter=    36 ; resid.=  4.77547249053617E-05
(PID.TID 0000.0001)  cg2d: iter=    37 ; resid.=  3.85878953629279E-05
(PID.TID 0000.0001)  cg2d: iter=    38 ; resid.=  3.40318449133714E-05
(PID.TID 0000.0001)  cg2d: iter=    39 ; resid.=  3.04994384897162E-05
(PID.TID 0000.0001)  cg2d: iter=    40 ; resid.=  2.80914368653654E-05
(PID.TID 0000.0001)  cg2d: iter=    41 ; resid.=  2.32140705073645E-05
(PID.TID 0000.0001)  cg2d: iter=    42 ; resid.=  2.13469354898937E-05
(PID.TID 0000.0001)  cg2d: iter=    43 ; resid.=  1.91385552434827E-05
(PID.TID 0000.0001)  cg2d: iter=    44 ; resid.=  1.74557619825657E-05
(PID.TID 0000.0001)  cg2d: iter=    45 ; resid.=  1.53422729855480E-05
(PID.TID 0000.0001)  cg2d: iter=    46 ; resid.=  1.21028690034971E-05
(PID.TID 0000.0001)  cg2d: iter=    47 ; resid.=  9.04097346108762E-06
(PID.TID 0000.0001)  cg2d: iter=    48 ; resid.=  6.66742888799324E-06
(PID.TID 0000.0001)  cg2d: iter=    49 ; resid.=  5.26595235239467E-06
(PID.TID 0000.0001)  cg2d: iter=    50 ; resid.=  4.09168349868027E-06
(PID.TID 0000.0001)  cg2d: iter=    51 ; resid.=  3.46439083157058E-06
(PID.TID 0000.0001)  cg2d: iter=    52 ; resid.=  2.99239413092044E-06
(PID.TID 0000.0001)  cg2d: iter=    53 ; resid.=  2.62326780317794E-06
(PID.TID 0000.0001)  cg2d: iter=    54 ; resid.=  2.19156057269101E-06
(PID.TID 0000.0001)  cg2d: iter=    55 ; resid.=  1.78599220458394E-06
(PID.TID 0000.0001)  cg2d: iter=    56 ; resid.=  1.43045188071328E-06
(PID.TID 0000.0001)  cg2d: iter=    57 ; resid.=  1.16360761900847E-06
(PID.TID 0000.0001)  cg2d: iter=    58 ; resid.=  9.35009434708003E-07
(PID.TID 0000.0001)  cg2d: iter=    59 ; resid.=  6.95347236981906E-07
(PID.TID 0000.0001)  cg2d: iter=    60 ; resid.=  5.09038309458014E-07
(PID.TID 0000.0001)  cg2d: iter=    61 ; resid.=  3.86266874983285E-07
(PID.TID 0000.0001)  cg2d: iter=    62 ; resid.=  3.21275616803449E-07
(PID.TID 0000.0001)  cg2d: iter=    63 ; resid.=  2.64288297411374E-07
(PID.TID 0000.0001)  cg2d: iter=    64 ; resid.=  1.99844858070847E-07
(PID.TID 0000.0001)  cg2d: iter=    65 ; resid.=  1.58062922089051E-07
(PID.TID 0000.0001)  cg2d: iter=    66 ; resid.=  1.23273219300749E-07
(PID.TID 0000.0001)  cg2d: iter=    67 ; resid.=  9.60479068702095E-08
(PID.TID 0000.0001)  cg2d: iter=    68 ; resid.=  7.94765981229490E-08
(PID.TID 0000.0001)  cg2d: iter=    69 ; resid.=  6.23370569402758E-08
(PID.TID 0000.0001)  cg2d: iter=    70 ; resid.=  4.88154668106948E-08
(PID.TID 0000.0001)  cg2d: iter=    71 ; resid.=  3.65590234557398E-08
(PID.TID 0000.0001)  cg2d: iter=    72 ; resid.=  2.76743608227037E-08
(PID.TID 0000.0001)  cg2d: iter=    73 ; resid.=  2.07877635521528E-08
(PID.TID 0000.0001)  cg2d: iter=    74 ; resid.=  1.64400217037758E-08
(PID.TID 0000.0001)  cg2d: iter=    75 ; resid.=  1.26396603412753E-08
(PID.TID 0000.0001)  cg2d: iter=    76 ; resid.=  9.72394951783196E-09
(PID.TID 0000.0001)  cg2d: iter=    77 ; resid.=  7.27997743238469E-09
(PID.TID 0000.0001)  cg2d: iter=    78 ; resid.=  5.81309675055448E-09
(PID.TID 0000.0001)  cg2d: iter=    79 ; resid.=  4.39224145361291E-09
(PID.TID 0000.0001)  cg2d: iter=    80 ; resid.=  3.42521539699162E-09
(PID.TID 0000.0001)  cg2d: iter=    81 ; resid.=  2.96290541181749E-09
(PID.TID 0000.0001)  cg2d: iter=    82 ; resid.=  2.40476619647355E-09
(PID.TID 0000.0001)  cg2d: iter=    83 ; resid.=  1.93837400959775E-09
(PID.TID 0000.0001)  cg2d: iter=    84 ; resid.=  1.66396577629046E-09
(PID.TID 0000.0001)  cg2d: iter=    85 ; resid.=  1.34471433691483E-09
(PID.TID 0000.0001)  cg2d: iter=    86 ; resid.=  1.12290806619752E-09
(PID.TID 0000.0001)  cg2d: iter=    87 ; resid.=  9.29217731259602E-10
(PID.TID 0000.0001)  cg2d: iter=    88 ; resid.=  7.24565740826852E-10
(PID.TID 0000.0001)  cg2d: iter=    89 ; resid.=  5.77310974721002E-10
(PID.TID 0000.0001)  cg2d: iter=    90 ; resid.=  4.91408489035156E-10
(PID.TID 0000.0001)  cg2d: iter=    91 ; resid.=  4.23991693167751E-10
(PID.TID 0000.0001)  cg2d: iter=    92 ; resid.=  3.89819244640588E-10
(PID.TID 0000.0001)  cg2d: iter=    93 ; resid.=  3.43800566416984E-10
(PID.TID 0000.0001)  cg2d: iter=    94 ; resid.=  2.79810709944806E-10
(PID.TID 0000.0001)  cg2d: iter=    95 ; resid.=  2.35436517184784E-10
(PID.TID 0000.0001)  cg2d: iter=    96 ; resid.=  1.91457600183766E-10
(PID.TID 0000.0001)  cg2d: iter=    97 ; resid.=  1.47285588402923E-10
(PID.TID 0000.0001)  cg2d: iter=    98 ; resid.=  1.06595184432130E-10
(PID.TID 0000.0001)  cg2d: iter=    99 ; resid.=  7.04548188059448E-11
(PID.TID 0000.0001)  cg2d: iter=   100 ; resid.=  5.27223868208759E-11
(PID.TID 0000.0001)  cg2d: iter=   101 ; resid.=  4.45322782548220E-11
(PID.TID 0000.0001)  cg2d: iter=   102 ; resid.=  4.04899228205664E-11
(PID.TID 0000.0001)  cg2d: iter=   103 ; resid.=  3.31237478667266E-11
(PID.TID 0000.0001)  cg2d: iter=   104 ; resid.=  2.73322405130261E-11
(PID.TID 0000.0001)  cg2d: iter=   105 ; resid.=  2.23542454181098E-11
(PID.TID 0000.0001)  cg2d: iter=   106 ; resid.=  1.81748973320458E-11
(PID.TID 0000.0001)  cg2d: iter=   107 ; resid.=  1.52034401286214E-11
(PID.TID 0000.0001)  cg2d: iter=   108 ; resid.=  1.28370930176073E-11
(PID.TID 0000.0001)  cg2d: iter=   109 ; resid.=  1.09220450192972E-11
(PID.TID 0000.0001)  cg2d: iter=   110 ; resid.=  7.98860984462689E-12
(PID.TID 0000.0001)  cg2d: iter=   111 ; resid.=  6.19613388184455E-12
(PID.TID 0000.0001)  cg2d: iter=   112 ; resid.=  5.29812219911480E-12
(PID.TID 0000.0001)  cg2d: iter=   113 ; resid.=  4.54968427350780E-12
(PID.TID 0000.0001)  cg2d: iter=   114 ; resid.=  3.71312120095162E-12
(PID.TID 0000.0001)  cg2d: iter=   115 ; resid.=  3.01435039613743E-12
(PID.TID 0000.0001)  cg2d: iter=   116 ; resid.=  2.34629001968390E-12
(PID.TID 0000.0001)  cg2d: iter=   117 ; resid.=  1.85497806948743E-12
(PID.TID 0000.0001)  cg2d: iter=   118 ; resid.=  1.41616667022423E-12
(PID.TID 0000.0001)  cg2d: iter=   119 ; resid.=  1.04738460503670E-12
(PID.TID 0000.0001)  cg2d: iter=   120 ; resid.=  7.92797825397968E-13
(PID.TID 0000.0001)  cg2d: iter=   121 ; resid.=  5.85434258076538E-13
(PID.TID 0000.0001)  cg2d: iter=   122 ; resid.=  4.22886838034749E-13
(PID.TID 0000.0001)  cg2d: iter=   123 ; resid.=  3.10569520186901E-13
(PID.TID 0000.0001)  cg2d: iter=   124 ; resid.=  2.29571306861004E-13
(PID.TID 0000.0001)  cg2d: iter=   125 ; resid.=  1.60702755677313E-13
(PID.TID 0000.0001)  cg2d: iter=   126 ; resid.=  1.23941726908160E-13
(PID.TID 0000.0001)  cg2d: iter=   127 ; resid.=  9.52006623012107E-14
DEBUG_STATS_RL:    cg2d_x (SOLVE_FOR_PRESSURE)  min= -1.83614131167893E+01
DEBUG_STATS_RL:    cg2d_x (SOLVE_FOR_PRESSURE)  max=  8.80038543262596E+00
DEBUG_STATS_RL:    cg2d_x (SOLVE_FOR_PRESSURE) mean= -1.84477659431030E+00
DEBUG_STATS_RL:    cg2d_x (SOLVE_FOR_PRESSURE) S.D.=  7.08099609439116E+00
(PID.TID 0000.0001)      cg2d_init_res =   2.02438179989157E-01
(PID.TID 0000.0001)      cg2d_iters(min,last) =      -1     127
(PID.TID 0000.0001)      cg2d_last_res =   9.52006623012107E-14
(PID.TID 0000.0001) // =======================================================
(PID.TID 0000.0001) // Begin MONITOR dynamic field statistics
(PID.TID 0000.0001) // =======================================================
(PID.TID 0000.0001) %MON time_tsnumber                =                    82
(PID.TID 0000.0001) %MON time_secondsf                =   7.0848000000000E+06
(PID.TID 0000.0001) %MON dynstat_eta_max              =   8.9708312259184E-01
(PID.TID 0000.0001) %MON dynstat_eta_min              =  -1.8717036816298E+00
(PID.TID 0000.0001) %MON dynstat_eta_mean             =  -5.5636936783228E-03
(PID.TID 0000.0001) %MON dynstat_eta_sd               =   6.1960124394602E-01
(PID.TID 0000.0001) %MON dynstat_eta_del2             =   2.4650678940983E-03
(PID.TID 0000.0001) %MON dynstat_uvel_max             =   1.5308426371112E-01
(PID.TID 0000.0001) %MON dynstat_uvel_min             =  -1.2949946491607E-01
(PID.TID 0000.0001) %MON dynstat_uvel_mean            =   2.6098081168757E-03
(PID.TID 0000.0001) %MON dynstat_uvel_sd              =   1.3758088734703E-02
(PID.TID 0000.0001) %MON dynstat_uvel_del2            =   8.3037351989492E-05
(PID.TID 0000.0001) %MON dynstat_vvel_max             =   1.2312054553119E-01
(PID.TID 0000.0001) %MON dynstat_vvel_min             =  -7.8766359155132E-02
(PID.TID 0000.0001) %MON dynstat_vvel_mean            =   4.6435010722415E-06
(PID.TID 0000.0001) %MON dynstat_vvel_sd              =   7.8993100538798E-03
(PID.TID 0000.0001) %MON dynstat_vvel_del2            =   7.1356258954339E-05
(PID.TID 0000.0001) %MON dynstat_wvel_max             =   1.4476601778840E-04
(PID.TID 0000.0001) %MON dynstat_wvel_min             =  -6.1096148389782E-05
(PID.TID 0000.0001) %MON dynstat_wvel_mean            =  -1.1499426287530E-22
(PID.TID 0000.0001) %MON dynstat_wvel_sd              =   9.6523115379225E-06
(PID.TID 0000.0001) %MON dynstat_wvel_del2            =   9.6484580821835E-08
(PID.TID 0000.0001) %MON dynstat_theta_max            =   3.1073034749214E+01
(PID.TID 0000.0001) %MON dynstat_theta_min            =  -1.9415205895436E+00
(PID.TID 0000.0001) %MON dynstat_theta_mean           =   3.6242702496445E+00
(PID.TID 0000.0001) %MON dynstat_theta_sd             =   4.4280082923562E+00
(PID.TID 0000.0001) %MON dynstat_theta_del2           =   4.8407396106548E-03
(PID.TID 0000.0001) %MON dynstat_salt_max             =   3.7462428422510E+01
(PID.TID 0000.0001) %MON dynstat_salt_min             =   2.9921156224101E+01
(PID.TID 0000.0001) %MON dynstat_salt_mean            =   3.4717999292457E+01
(PID.TID 0000.0001) %MON dynstat_salt_sd              =   2.9658803347403E-01
(PID.TID 0000.0001) %MON dynstat_salt_del2            =   9.9395949379325E-04
(PID.TID 0000.0001) %MON dynstat_sst_max              =   3.1073034749214E+01
(PID.TID 0000.0001) %MON dynstat_sst_min              =  -1.9415205895436E+00
(PID.TID 0000.0001) %MON dynstat_sst_mean             =   1.9057197185198E+01
(PID.TID 0000.0001) %MON dynstat_sst_sd               =   9.1923353586652E+00
(PID.TID 0000.0001) %MON dynstat_sst_del2             =   2.8963771184273E-02
(PID.TID 0000.0001) %MON dynstat_sss_max              =   3.7462428422510E+01
(PID.TID 0000.0001) %MON dynstat_sss_min              =   2.9921156224101E+01
(PID.TID 0000.0001) %MON dynstat_sss_mean             =   3.4837375076476E+01
(PID.TID 0000.0001) %MON dynstat_sss_sd               =   9.8737727103250E-01
(PID.TID 0000.0001) %MON dynstat_sss_del2             =   8.2107671946519E-03
(PID.TID 0000.0001) %MON forcing_qnet_max             =   2.4627628173828E+02
(PID.TID 0000.0001) %MON forcing_qnet_min             =  -1.6128761291504E+02
(PID.TID 0000.0001) %MON forcing_qnet_mean            =  -4.8828474163268E+00
(PID.TID 0000.0001) %MON forcing_qnet_sd              =   4.1789417838572E+01
(PID.TID 0000.0001) %MON forcing_qnet_del2            =   8.1227755261188E-01
(PID.TID 0000.0001) %MON forcing_qsw_max              =   0.0000000000000E+00
(PID.TID 0000.0001) %MON forcing_qsw_min              =   0.0000000000000E+00
(PID.TID 0000.0001) %MON forcing_qsw_mean             =   0.0000000000000E+00
(PID.TID 0000.0001) %MON forcing_qsw_sd               =   0.0000000000000E+00
(PID.TID 0000.0001) %MON forcing_qsw_del2             =   0.0000000000000E+00
(PID.TID 0000.0001) %MON forcing_empmr_max            =   6.8531795704985E-05
(PID.TID 0000.0001) %MON forcing_empmr_min            =  -8.3353494062521E-05
(PID.TID 0000.0001) %MON forcing_empmr_mean           =   4.1603886471329E-07
(PID.TID 0000.0001) %MON forcing_empmr_sd             =   2.5903822702636E-05
(PID.TID 0000.0001) %MON forcing_empmr_del2           =   3.6347696662718E-07
(PID.TID 0000.0001) %MON forcing_fu_max               =   3.5241369009018E-01
(PID.TID 0000.0001) %MON forcing_fu_min               =  -3.9415485262871E-01
(PID.TID 0000.0001) %MON forcing_fu_mean              =   1.9693576718791E-02
(PID.TID 0000.0001) %MON forcing_fu_sd                =   1.0078027975270E-01
(PID.TID 0000.0001) %MON forcing_fu_del2              =   8.0191903414414E-04
(PID.TID 0000.0001) %MON forcing_fv_max               =   1.8272433876991E-01
(PID.TID 0000.0001) %MON forcing_fv_min               =  -1.7288535237312E-01
(PID.TID 0000.0001) %MON forcing_fv_mean              =  -7.3107154058064E-03
(PID.TID 0000.0001) %MON forcing_fv_sd                =   4.0457031472126E-02
(PID.TID 0000.0001) %MON forcing_fv_del2              =   4.5597816085300E-04
(PID.TID 0000.0001) %MON trAdv_CFL_u_max              =   4.1488296837172E-02
(PID.TID 0000.0001) %MON trAdv_CFL_v_max              =   2.3904268753395E-02
(PID.TID 0000.0001) %MON trAdv_CFL_w_max              =   3.3321552441761E-02
(PID.TID 0000.0001) %MON advcfl_uvel_max              =   4.1232066315844E-02
(PID.TID 0000.0001) %MON advcfl_vvel_max              =   2.3920347380559E-02
(PID.TID 0000.0001) %MON advcfl_wvel_max              =   3.4267901197036E-02
(PID.TID 0000.0001) %MON advcfl_W_hf_max              =   3.6787599814465E-02
(PID.TID 0000.0001) %MON pe_b_mean                    =   4.9129322856303E-04
(PID.TID 0000.0001) %MON ke_max                       =   1.1865909796447E-02
(PID.TID 0000.0001) %MON ke_mean                      =   1.1710312831169E-04
(PID.TID 0000.0001) %MON ke_vol                       =   1.3226782436723E+18
(PID.TID 0000.0001) %MON vort_r_min                   =  -3.7051271891260E-07
(PID.TID 0000.0001) %MON vort_r_max                   =   3.8445942618665E-07
(PID.TID 0000.0001) %MON vort_a_mean                  =  -2.5274807014780E-05
(PID.TID 0000.0001) %MON vort_a_sd                    =   7.3604709356716E-05
(PID.TID 0000.0001) %MON vort_p_mean                  =  -3.1845655317316E-05
(PID.TID 0000.0001) %MON vort_p_sd                    =   1.3162480912171E-04
(PID.TID 0000.0001) %MON surfExpan_theta_mean         =   1.4948646022458E-07
(PID.TID 0000.0001) %MON surfExpan_salt_mean          =   1.1993334737416E-08
(PID.TID 0000.0001) // =======================================================
(PID.TID 0000.0001) // End MONITOR dynamic field statistics
(PID.TID 0000.0001) // =======================================================
 EXTERNAL_FIELDS_LOAD,        82 : iP,iLd,i0,i1=    3    4    3    4 ; Wght=  0.7666666667  0.2333333333
 EXTERNAL_FIELDS_LOAD: (fu0,1),fu,fv= -2.7199E-02 -3.7252E-02 -2.9545E-02 -8.6603E-03
 EXTERNAL_FIELDS_LOAD: SST,SSS,Q,E-P= -1.3275E-01  3.4577E+01  1.8943E+02  8.7747E-06
DEBUG_STATS_RL:          Uvel (THERMODYNAMICS)  min= -1.29499464916066E-01
DEBUG_STATS_RL:          Uvel (THERMODYNAMICS)  max=  1.53084263711120E-01
DEBUG_STATS_RL:          Uvel (THERMODYNAMICS) mean=  6.21288985211426E-03
DEBUG_STATS_RL:          Uvel (THERMODYNAMICS) S.D.=  2.20593529915050E-02
DEBUG_STATS_RL:          Vvel (THERMODYNAMICS)  min= -7.87663591551324E-02
DEBUG_STATS_RL:          Vvel (THERMODYNAMICS)  max=  1.23120545531186E-01
DEBUG_STATS_RL:          Vvel (THERMODYNAMICS) mean=  1.04604170899535E-03
DEBUG_STATS_RL:          Vvel (THERMODYNAMICS) S.D.=  1.29648746899905E-02
DEBUG_STATS_RL:          Wvel (THERMODYNAMICS)  min= -6.10961483897818E-05
DEBUG_STATS_RL:          Wvel (THERMODYNAMICS)  max=  1.44766017788405E-04
DEBUG_STATS_RL:          Wvel (THERMODYNAMICS) mean=  1.54869387252312E-09
DEBUG_STATS_RL:          Wvel (THERMODYNAMICS) S.D.=  8.55418831686714E-06
DEBUG_STATS_RL:         Theta (THERMODYNAMICS)  min= -1.94047715934617E+00
DEBUG_STATS_RL:         Theta (THERMODYNAMICS)  max=  3.10936979880590E+01
DEBUG_STATS_RL:         Theta (THERMODYNAMICS) mean=  3.22129303513996E+00
DEBUG_STATS_RL:         Theta (THERMODYNAMICS) S.D.=  5.88762752494165E+00
DEBUG_STATS_RL:          Salt (THERMODYNAMICS)  min= -3.12250225675825E-17
DEBUG_STATS_RL:          Salt (THERMODYNAMICS)  max=  3.74632431800375E+01
DEBUG_STATS_RL:          Salt (THERMODYNAMICS) mean=  1.88447630308336E+01
DEBUG_STATS_RL:          Salt (THERMODYNAMICS) S.D.=  1.73003135759401E+01
DEBUG_STATS_RL:         GtNm1 (THERMODYNAMICS)  min= -3.89101357299113E-06
DEBUG_STATS_RL:         GtNm1 (THERMODYNAMICS)  max=  2.17548304884178E-06
DEBUG_STATS_RL:         GtNm1 (THERMODYNAMICS) mean= -2.58028089673016E-10
DEBUG_STATS_RL:         GtNm1 (THERMODYNAMICS) S.D.=  1.39201470482697E-07
DEBUG_STATS_RL:         GsNm1 (THERMODYNAMICS)  min= -6.15866239488517E-07
DEBUG_STATS_RL:         GsNm1 (THERMODYNAMICS)  max=  4.12669691751697E-07
DEBUG_STATS_RL:         GsNm1 (THERMODYNAMICS) mean=  3.59233978989970E-12
DEBUG_STATS_RL:         GsNm1 (THERMODYNAMICS) S.D.=  1.40334400547953E-08
DEBUG_STATS_RL:                EtaN (DYNAMICS)  min= -1.87170368162977E+00
DEBUG_STATS_RL:                EtaN (DYNAMICS)  max=  8.97083122591840E-01
DEBUG_STATS_RL:                EtaN (DYNAMICS) mean= -1.88050621234485E-01
DEBUG_STATS_RL:                EtaN (DYNAMICS) S.D.=  7.21814076900221E-01
DEBUG_STATS_RL:                Uvel (DYNAMICS)  min= -1.29499464916066E-01
DEBUG_STATS_RL:                Uvel (DYNAMICS)  max=  1.53084263711120E-01
DEBUG_STATS_RL:                Uvel (DYNAMICS) mean=  6.21288985211426E-03
DEBUG_STATS_RL:                Uvel (DYNAMICS) S.D.=  2.20593529915050E-02
DEBUG_STATS_RL:                Vvel (DYNAMICS)  min= -7.87663591551324E-02
DEBUG_STATS_RL:                Vvel (DYNAMICS)  max=  1.23120545531186E-01
DEBUG_STATS_RL:                Vvel (DYNAMICS) mean=  1.04604170899535E-03
DEBUG_STATS_RL:                Vvel (DYNAMICS) S.D.=  1.29648746899905E-02
DEBUG_STATS_RL:                Wvel (DYNAMICS)  min= -6.10961483897818E-05
DEBUG_STATS_RL:                Wvel (DYNAMICS)  max=  1.44766017788405E-04
DEBUG_STATS_RL:                Wvel (DYNAMICS) mean=  1.54869387252312E-09
DEBUG_STATS_RL:                Wvel (DYNAMICS) S.D.=  8.55418831686714E-06
DEBUG_STATS_RL:               Theta (DYNAMICS)  min= -1.94047715934617E+00
DEBUG_STATS_RL:               Theta (DYNAMICS)  max=  3.10936979880590E+01
DEBUG_STATS_RL:               Theta (DYNAMICS) mean=  3.22129303513996E+00
DEBUG_STATS_RL:               Theta (DYNAMICS) S.D.=  5.88762752494165E+00
DEBUG_STATS_RL:                Salt (DYNAMICS)  min= -3.12250225675825E-17
DEBUG_STATS_RL:                Salt (DYNAMICS)  max=  3.74632431800375E+01
DEBUG_STATS_RL:                Salt (DYNAMICS) mean=  1.88447630308336E+01
DEBUG_STATS_RL:                Salt (DYNAMICS) S.D.=  1.73003135759401E+01
DEBUG_STATS_RL:                  Gu (DYNAMICS)  min= -1.28579480424274E-01
DEBUG_STATS_RL:                  Gu (DYNAMICS)  max=  1.60068224661192E-01
DEBUG_STATS_RL:                  Gu (DYNAMICS) mean=  6.12035239910206E-03
DEBUG_STATS_RL:                  Gu (DYNAMICS) S.D.=  2.23931236374763E-02
DEBUG_STATS_RL:                  Gv (DYNAMICS)  min= -7.72623166814053E-02
DEBUG_STATS_RL:                  Gv (DYNAMICS)  max=  1.19485178117199E-01
DEBUG_STATS_RL:                  Gv (DYNAMICS) mean=  3.68306488414187E-03
DEBUG_STATS_RL:                  Gv (DYNAMICS) S.D.=  1.45642369639932E-02
DEBUG_STATS_RL:               GuNm1 (DYNAMICS)  min= -9.82072993124972E-06
DEBUG_STATS_RL:               GuNm1 (DYNAMICS)  max=  9.24221985089666E-06
DEBUG_STATS_RL:               GuNm1 (DYNAMICS) mean=  8.96926829315570E-09
DEBUG_STATS_RL:               GuNm1 (DYNAMICS) S.D.=  1.22034010902400E-06
DEBUG_STATS_RL:               GvNm1 (DYNAMICS)  min= -9.54052606050310E-06
DEBUG_STATS_RL:               GvNm1 (DYNAMICS)  max=  1.54839233762951E-05
DEBUG_STATS_RL:               GvNm1 (DYNAMICS) mean=  7.37595135451351E-07
DEBUG_STATS_RL:               GvNm1 (DYNAMICS) S.D.=  2.60943651983389E-06
DEBUG_STATS_RL:               GtNm1 (DYNAMICS)  min= -3.89101357299113E-06
DEBUG_STATS_RL:               GtNm1 (DYNAMICS)  max=  2.17548304884178E-06
DEBUG_STATS_RL:               GtNm1 (DYNAMICS) mean= -2.58028089673016E-10
DEBUG_STATS_RL:               GtNm1 (DYNAMICS) S.D.=  1.39201470482697E-07
DEBUG_STATS_RL:               GsNm1 (DYNAMICS)  min= -6.15866239488517E-07
DEBUG_STATS_RL:               GsNm1 (DYNAMICS)  max=  4.12669691751697E-07
DEBUG_STATS_RL:               GsNm1 (DYNAMICS) mean=  3.59233978989970E-12
DEBUG_STATS_RL:               GsNm1 (DYNAMICS) S.D.=  1.40334400547953E-08
DEBUG_STATS_RL:    cg2d_b (SOLVE_FOR_PRESSURE)  min= -2.60054549645713E+04
DEBUG_STATS_RL:    cg2d_b (SOLVE_FOR_PRESSURE)  max=  2.72981531796382E+04
DEBUG_STATS_RL:    cg2d_b (SOLVE_FOR_PRESSURE) mean=  5.36388622819158E+00
DEBUG_STATS_RL:    cg2d_b (SOLVE_FOR_PRESSURE) S.D.=  3.91772586947451E+03
 cg2d: Sum(rhs),rhsMax =   4.54880465229689E-01  1.79301578961584E+00
(PID.TID 0000.0001)  cg2d: iter=     1 ; resid.=  5.42304796714859E-02
(PID.TID 0000.0001)  cg2d: iter=     2 ; resid.=  2.71735900694093E-02
(PID.TID 0000.0001)  cg2d: iter=     3 ; resid.=  1.74324415954061E-02
(PID.TID 0000.0001)  cg2d: iter=     4 ; resid.=  1.54424666283880E-02
(PID.TID 0000.0001)  cg2d: iter=     5 ; resid.=  1.37542874841441E-02
(PID.TID 0000.0001)  cg2d: iter=     6 ; resid.=  1.15854155171486E-02
(PID.TID 0000.0001)  cg2d: iter=     7 ; resid.=  1.06370813715832E-02
(PID.TID 0000.0001)  cg2d: iter=     8 ; resid.=  9.71626337468562E-03
(PID.TID 0000.0001)  cg2d: iter=     9 ; resid.=  7.98581203456331E-03
(PID.TID 0000.0001)  cg2d: iter=    10 ; resid.=  6.57216470104753E-03
(PID.TID 0000.0001)  cg2d: iter=    11 ; resid.=  5.23146812826642E-03
(PID.TID 0000.0001)  cg2d: iter=    12 ; resid.=  4.42373035197152E-03
(PID.TID 0000.0001)  cg2d: iter=    13 ; resid.=  3.62930191420592E-03
(PID.TID 0000.0001)  cg2d: iter=    14 ; resid.=  2.92648814876993E-03
(PID.TID 0000.0001)  cg2d: iter=    15 ; resid.=  2.51890627620532E-03
(PID.TID 0000.0001)  cg2d: iter=    16 ; resid.=  1.99559652604063E-03
(PID.TID 0000.0001)  cg2d: iter=    17 ; resid.=  1.69179902022524E-03
(PID.TID 0000.0001)  cg2d: iter=    18 ; resid.=  1.48419562020643E-03
(PID.TID 0000.0001)  cg2d: iter=    19 ; resid.=  1.37612339922950E-03
(PID.TID 0000.0001)  cg2d: iter=    20 ; resid.=  1.11839233214113E-03
(PID.TID 0000.0001)  cg2d: iter=    21 ; resid.=  8.69282780675028E-04
(PID.TID 0000.0001)  cg2d: iter=    22 ; resid.=  7.06938447706687E-04
(PID.TID 0000.0001)  cg2d: iter=    23 ; resid.=  6.17663076591847E-04
(PID.TID 0000.0001)  cg2d: iter=    24 ; resid.=  5.38678375218923E-04
(PID.TID 0000.0001)  cg2d: iter=    25 ; resid.=  4.89880159393844E-04
(PID.TID 0000.0001)  cg2d: iter=    26 ; resid.=  4.14466648740691E-04
(PID.TID 0000.0001)  cg2d: iter=    27 ; resid.=  3.59288485863696E-04
(PID.TID 0000.0001)  cg2d: iter=    28 ; resid.=  3.02186490350607E-04
(PID.TID 0000.0001)  cg2d: iter=    29 ; resid.=  2.58099254273998E-04
(PID.TID 0000.0001)  cg2d: iter=    30 ; resid.=  2.20722529841818E-04
(PID.TID 0000.0001)  cg2d: iter=    31 ; resid.=  1.79919674802493E-04
(PID.TID 0000.0001)  cg2d: iter=    32 ; resid.=  1.41635807381184E-04
(PID.TID 0000.0001)  cg2d: iter=    33 ; resid.=  1.15183025710368E-04
(PID.TID 0000.0001)  cg2d: iter=    34 ; resid.=  8.86083077615488E-05
(PID.TID 0000.0001)  cg2d: iter=    35 ; resid.=  6.58279414614626E-05
(PID.TID 0000.0001)  cg2d: iter=    36 ; resid.=  4.83695145778132E-05
(PID.TID 0000.0001)  cg2d: iter=    37 ; resid.=  4.03876384789495E-05
(PID.TID 0000.0001)  cg2d: iter=    38 ; resid.=  3.62818417919211E-05
(PID.TID 0000.0001)  cg2d: iter=    39 ; resid.=  3.27922468520805E-05
(PID.TID 0000.0001)  cg2d: iter=    40 ; resid.=  2.91517267557762E-05
(PID.TID 0000.0001)  cg2d: iter=    41 ; resid.=  2.30054078639713E-05
(PID.TID 0000.0001)  cg2d: iter=    42 ; resid.=  2.01750095375894E-05
(PID.TID 0000.0001)  cg2d: iter=    43 ; resid.=  1.72101947006809E-05
(PID.TID 0000.0001)  cg2d: iter=    44 ; resid.=  1.47163768765147E-05
(PID.TID 0000.0001)  cg2d: iter=    45 ; resid.=  1.21514763226819E-05
(PID.TID 0000.0001)  cg2d: iter=    46 ; resid.=  9.35480281217003E-06
(PID.TID 0000.0001)  cg2d: iter=    47 ; resid.=  7.02999846365854E-06
(PID.TID 0000.0001)  cg2d: iter=    48 ; resid.=  5.48053291298787E-06
(PID.TID 0000.0001)  cg2d: iter=    49 ; resid.=  4.61147106260990E-06
(PID.TID 0000.0001)  cg2d: iter=    50 ; resid.=  3.83752454256112E-06
(PID.TID 0000.0001)  cg2d: iter=    51 ; resid.=  3.46497204486808E-06
(PID.TID 0000.0001)  cg2d: iter=    52 ; resid.=  3.20633303704771E-06
(PID.TID 0000.0001)  cg2d: iter=    53 ; resid.=  2.94653594478660E-06
(PID.TID 0000.0001)  cg2d: iter=    54 ; resid.=  2.53665502334086E-06
(PID.TID 0000.0001)  cg2d: iter=    55 ; resid.=  2.07171581503201E-06
(PID.TID 0000.0001)  cg2d: iter=    56 ; resid.=  1.64508529975162E-06
(PID.TID 0000.0001)  cg2d: iter=    57 ; resid.=  1.32184606806905E-06
(PID.TID 0000.0001)  cg2d: iter=    58 ; resid.=  1.05489960051755E-06
(PID.TID 0000.0001)  cg2d: iter=    59 ; resid.=  7.76829417197296E-07
(PID.TID 0000.0001)  cg2d: iter=    60 ; resid.=  5.69744323438427E-07
(PID.TID 0000.0001)  cg2d: iter=    61 ; resid.=  4.47206775027243E-07
(PID.TID 0000.0001)  cg2d: iter=    62 ; resid.=  3.86960713146997E-07
(PID.TID 0000.0001)  cg2d: iter=    63 ; resid.=  3.25319450283832E-07
(PID.TID 0000.0001)  cg2d: iter=    64 ; resid.=  2.46499545612921E-07
(PID.TID 0000.0001)  cg2d: iter=    65 ; resid.=  1.95867912543205E-07
(PID.TID 0000.0001)  cg2d: iter=    66 ; resid.=  1.54966754322270E-07
(PID.TID 0000.0001)  cg2d: iter=    67 ; resid.=  1.21133548201337E-07
(PID.TID 0000.0001)  cg2d: iter=    68 ; resid.=  1.00302137982474E-07
(PID.TID 0000.0001)  cg2d: iter=    69 ; resid.=  7.97799126585349E-08
(PID.TID 0000.0001)  cg2d: iter=    70 ; resid.=  6.29464179352194E-08
(PID.TID 0000.0001)  cg2d: iter=    71 ; resid.=  4.85691970885956E-08
(PID.TID 0000.0001)  cg2d: iter=    72 ; resid.=  3.93864811963986E-08
(PID.TID 0000.0001)  cg2d: iter=    73 ; resid.=  3.26743939398359E-08
(PID.TID 0000.0001)  cg2d: iter=    74 ; resid.=  2.91484516986500E-08
(PID.TID 0000.0001)  cg2d: iter=    75 ; resid.=  2.50069567926296E-08
(PID.TID 0000.0001)  cg2d: iter=    76 ; resid.=  2.14398808799497E-08
(PID.TID 0000.0001)  cg2d: iter=    77 ; resid.=  1.81228790444100E-08
(PID.TID 0000.0001)  cg2d: iter=    78 ; resid.=  1.60652697370469E-08
(PID.TID 0000.0001)  cg2d: iter=    79 ; resid.=  1.32074517478802E-08
(PID.TID 0000.0001)  cg2d: iter=    80 ; resid.=  1.12266458311601E-08
(PID.TID 0000.0001)  cg2d: iter=    81 ; resid.=  9.83119020839213E-09
(PID.TID 0000.0001)  cg2d: iter=    82 ; resid.=  7.47139285736151E-09
(PID.TID 0000.0001)  cg2d: iter=    83 ; resid.=  5.75418965235044E-09
(PID.TID 0000.0001)  cg2d: iter=    84 ; resid.=  4.68628093708837E-09
(PID.TID 0000.0001)  cg2d: iter=    85 ; resid.=  3.55837472590366E-09
(PID.TID 0000.0001)  cg2d: iter=    86 ; resid.=  2.84024301201638E-09
(PID.TID 0000.0001)  cg2d: iter=    87 ; resid.=  2.22915722906093E-09
(PID.TID 0000.0001)  cg2d: iter=    88 ; resid.=  1.65765079273657E-09
(PID.TID 0000.0001)  cg2d: iter=    89 ; resid.=  1.31567830178793E-09
(PID.TID 0000.0001)  cg2d: iter=    90 ; resid.=  1.11347860526480E-09
(PID.TID 0000.0001)  cg2d: iter=    91 ; resid.=  9.21529988662586E-10
(PID.TID 0000.0001)  cg2d: iter=    92 ; resid.=  7.92468092491622E-10
(PID.TID 0000.0001)  cg2d: iter=    93 ; resid.=  6.36767428035885E-10
(PID.TID 0000.0001)  cg2d: iter=    94 ; resid.=  4.83449485517928E-10
(PID.TID 0000.0001)  cg2d: iter=    95 ; resid.=  3.92247492632123E-10
(PID.TID 0000.0001)  cg2d: iter=    96 ; resid.=  3.13498119499409E-10
(PID.TID 0000.0001)  cg2d: iter=    97 ; resid.=  2.42070080520790E-10
(PID.TID 0000.0001)  cg2d: iter=    98 ; resid.=  1.87738184264739E-10
(PID.TID 0000.0001)  cg2d: iter=    99 ; resid.=  1.43249938988246E-10
(PID.TID 0000.0001)  cg2d: iter=   100 ; resid.=  1.30713637522681E-10
(PID.TID 0000.0001)  cg2d: iter=   101 ; resid.=  1.26399088386036E-10
(PID.TID 0000.0001)  cg2d: iter=   102 ; resid.=  1.12894446099907E-10
(PID.TID 0000.0001)  cg2d: iter=   103 ; resid.=  8.38072706683866E-11
(PID.TID 0000.0001)  cg2d: iter=   104 ; resid.=  6.25337509406882E-11
(PID.TID 0000.0001)  cg2d: iter=   105 ; resid.=  4.63797994517728E-11
(PID.TID 0000.0001)  cg2d: iter=   106 ; resid.=  3.43012409108011E-11
(PID.TID 0000.0001)  cg2d: iter=   107 ; resid.=  2.67525310068205E-11
(PID.TID 0000.0001)  cg2d: iter=   108 ; resid.=  2.11528490180685E-11
(PID.TID 0000.0001)  cg2d: iter=   109 ; resid.=  1.66779379306422E-11
(PID.TID 0000.0001)  cg2d: iter=   110 ; resid.=  1.17100277103332E-11
(PID.TID 0000.0001)  cg2d: iter=   111 ; resid.=  9.04421848801635E-12
(PID.TID 0000.0001)  cg2d: iter=   112 ; resid.=  7.59186571282364E-12
(PID.TID 0000.0001)  cg2d: iter=   113 ; resid.=  6.29504148388807E-12
(PID.TID 0000.0001)  cg2d: iter=   114 ; resid.=  4.87922937823695E-12
(PID.TID 0000.0001)  cg2d: iter=   115 ; resid.=  3.76271192996986E-12
(PID.TID 0000.0001)  cg2d: iter=   116 ; resid.=  2.81804948633213E-12
(PID.TID 0000.0001)  cg2d: iter=   117 ; resid.=  2.13671008475297E-12
(PID.TID 0000.0001)  cg2d: iter=   118 ; resid.=  1.57644488536798E-12
(PID.TID 0000.0001)  cg2d: iter=   119 ; resid.=  1.16076735304840E-12
(PID.TID 0000.0001)  cg2d: iter=   120 ; resid.=  8.96542853769800E-13
(PID.TID 0000.0001)  cg2d: iter=   121 ; resid.=  6.65402833852981E-13
(PID.TID 0000.0001)  cg2d: iter=   122 ; resid.=  4.84494855147458E-13
(PID.TID 0000.0001)  cg2d: iter=   123 ; resid.=  3.56789092062410E-13
(PID.TID 0000.0001)  cg2d: iter=   124 ; resid.=  2.61211261628103E-13
(PID.TID 0000.0001)  cg2d: iter=   125 ; resid.=  1.83843554299592E-13
(PID.TID 0000.0001)  cg2d: iter=   126 ; resid.=  1.46513052938671E-13
(PID.TID 0000.0001)  cg2d: iter=   127 ; resid.=  1.15042342521871E-13
(PID.TID 0000.0001)  cg2d: iter=   128 ; resid.=  8.95373268063979E-14
DEBUG_STATS_RL:    cg2d_x (SOLVE_FOR_PRESSURE)  min= -1.83251322294941E+01
DEBUG_STATS_RL:    cg2d_x (SOLVE_FOR_PRESSURE)  max=  8.79903779787653E+00
DEBUG_STATS_RL:    cg2d_x (SOLVE_FOR_PRESSURE) mean= -1.84850729587461E+00
DEBUG_STATS_RL:    cg2d_x (SOLVE_FOR_PRESSURE) S.D.=  7.09418621241944E+00
(PID.TID 0000.0001)      cg2d_init_res =   1.99249108114999E-01
(PID.TID 0000.0001)      cg2d_iters(min,last) =      -1     128
(PID.TID 0000.0001)      cg2d_last_res =   8.95373268063979E-14
(PID.TID 0000.0001) // =======================================================
(PID.TID 0000.0001) // Begin MONITOR dynamic field statistics
(PID.TID 0000.0001) // =======================================================
(PID.TID 0000.0001) %MON time_tsnumber                =                    83
(PID.TID 0000.0001) %MON time_secondsf                =   7.1712000000000E+06
(PID.TID 0000.0001) %MON dynstat_eta_max              =   8.9694574901899E-01
(PID.TID 0000.0001) %MON dynstat_eta_min              =  -1.8680053241075E+00
(PID.TID 0000.0001) %MON dynstat_eta_mean             =  -5.5965501791826E-03
(PID.TID 0000.0001) %MON dynstat_eta_sd               =   6.2080548077511E-01
(PID.TID 0000.0001) %MON dynstat_eta_del2             =   2.4688856025362E-03
(PID.TID 0000.0001) %MON dynstat_uvel_max             =   1.5572464740763E-01
(PID.TID 0000.0001) %MON dynstat_uvel_min             =  -1.3011142135837E-01
(PID.TID 0000.0001) %MON dynstat_uvel_mean            =   2.6315790265354E-03
(PID.TID 0000.0001) %MON dynstat_uvel_sd              =   1.3748014366840E-02
(PID.TID 0000.0001) %MON dynstat_uvel_del2            =   8.3061511202581E-05
(PID.TID 0000.0001) %MON dynstat_vvel_max             =   1.2239088472881E-01
(PID.TID 0000.0001) %MON dynstat_vvel_min             =  -7.9407688595911E-02
(PID.TID 0000.0001) %MON dynstat_vvel_mean            =   3.0099759205149E-06
(PID.TID 0000.0001) %MON dynstat_vvel_sd              =   7.8598352455838E-03
(PID.TID 0000.0001) %MON dynstat_vvel_del2            =   7.1294188120533E-05
(PID.TID 0000.0001) %MON dynstat_wvel_max             =   1.3950667631510E-04
(PID.TID 0000.0001) %MON dynstat_wvel_min             =  -5.9260775056341E-05
(PID.TID 0000.0001) %MON dynstat_wvel_mean            =  -8.7389676185275E-24
(PID.TID 0000.0001) %MON dynstat_wvel_sd              =   9.5441951791203E-06
(PID.TID 0000.0001) %MON dynstat_wvel_del2            =   9.5405699644021E-08
(PID.TID 0000.0001) %MON dynstat_theta_max            =   3.1093697988059E+01
(PID.TID 0000.0001) %MON dynstat_theta_min            =  -1.9404771593462E+00
(PID.TID 0000.0001) %MON dynstat_theta_mean           =   3.6242908600435E+00
(PID.TID 0000.0001) %MON dynstat_theta_sd             =   4.4281347183617E+00
(PID.TID 0000.0001) %MON dynstat_theta_del2           =   4.8391720073078E-03
(PID.TID 0000.0001) %MON dynstat_salt_max             =   3.7463243180038E+01
(PID.TID 0000.0001) %MON dynstat_salt_min             =   2.9923911566984E+01
(PID.TID 0000.0001) %MON dynstat_salt_mean            =   3.4717999674855E+01
(PID.TID 0000.0001) %MON dynstat_salt_sd              =   2.9659587994575E-01
(PID.TID 0000.0001) %MON dynstat_salt_del2            =   9.9477155381684E-04
(PID.TID 0000.0001) %MON dynstat_sst_max              =   3.1093697988059E+01
(PID.TID 0000.0001) %MON dynstat_sst_min              =  -1.9404771593462E+00
(PID.TID 0000.0001) %MON dynstat_sst_mean             =   1.9056890077229E+01
(PID.TID 0000.0001) %MON dynstat_sst_sd               =   9.1998359539135E+00
(PID.TID 0000.0001) %MON dynstat_sst_del2             =   2.9025081877604E-02
(PID.TID 0000.0001) %MON dynstat_sss_max              =   3.7463243180038E+01
(PID.TID 0000.0001) %MON dynstat_sss_min              =   2.9923911566984E+01
(PID.TID 0000.0001) %MON dynstat_sss_mean             =   3.4837342296411E+01
(PID.TID 0000.0001) %MON dynstat_sss_sd               =   9.8775929246808E-01
(PID.TID 0000.0001) %MON dynstat_sss_del2             =   8.2264352844337E-03
(PID.TID 0000.0001) %MON forcing_qnet_max             =   2.4157104695638E+02
(PID.TID 0000.0001) %MON forcing_qnet_min             =  -1.6085961659749E+02
(PID.TID 0000.0001) %MON forcing_qnet_mean            =  -4.4858109873572E+00
(PID.TID 0000.0001) %MON forcing_qnet_sd              =   4.1223620087480E+01
(PID.TID 0000.0001) %MON forcing_qnet_del2            =   8.0717282221424E-01
(PID.TID 0000.0001) %MON forcing_qsw_max              =   0.0000000000000E+00
(PID.TID 0000.0001) %MON forcing_qsw_min              =   0.0000000000000E+00
(PID.TID 0000.0001) %MON forcing_qsw_mean             =   0.0000000000000E+00
(PID.TID 0000.0001) %MON forcing_qsw_sd               =   0.0000000000000E+00
(PID.TID 0000.0001) %MON forcing_qsw_del2             =   0.0000000000000E+00
(PID.TID 0000.0001) %MON forcing_empmr_max            =   6.8435624693090E-05
(PID.TID 0000.0001) %MON forcing_empmr_min            =  -8.3368340142442E-05
(PID.TID 0000.0001) %MON forcing_empmr_mean           =   3.9359349988573E-07
(PID.TID 0000.0001) %MON forcing_empmr_sd             =   2.5851876556707E-05
(PID.TID 0000.0001) %MON forcing_empmr_del2           =   3.6323282010377E-07
(PID.TID 0000.0001) %MON forcing_fu_max               =   3.5182609558105E-01
(PID.TID 0000.0001) %MON forcing_fu_min               =  -3.9508792459965E-01
(PID.TID 0000.0001) %MON forcing_fu_mean              =   1.9566384621858E-02
(PID.TID 0000.0001) %MON forcing_fu_sd                =   1.0063685282734E-01
(PID.TID 0000.0001) %MON forcing_fu_del2              =   7.9634795376390E-04
(PID.TID 0000.0001) %MON forcing_fv_max               =   1.8262833754222E-01
(PID.TID 0000.0001) %MON forcing_fv_min               =  -1.6947763959567E-01
(PID.TID 0000.0001) %MON forcing_fv_mean              =  -7.2742387334334E-03
(PID.TID 0000.0001) %MON forcing_fv_sd                =   4.0166105631794E-02
(PID.TID 0000.0001) %MON forcing_fv_del2              =   4.4910941931624E-04
(PID.TID 0000.0001) %MON trAdv_CFL_u_max              =   4.1240440843409E-02
(PID.TID 0000.0001) %MON trAdv_CFL_v_max              =   2.3822871498954E-02
(PID.TID 0000.0001) %MON trAdv_CFL_w_max              =   3.2071240863893E-02
(PID.TID 0000.0001) %MON advcfl_uvel_max              =   4.0711851083388E-02
(PID.TID 0000.0001) %MON advcfl_vvel_max              =   2.3778585989010E-02
(PID.TID 0000.0001) %MON advcfl_wvel_max              =   3.2925125247041E-02
(PID.TID 0000.0001) %MON advcfl_W_hf_max              =   3.5346090338735E-02
(PID.TID 0000.0001) %MON pe_b_mean                    =   4.9320512258612E-04
(PID.TID 0000.0001) %MON ke_max                       =   1.2197523414861E-02
(PID.TID 0000.0001) %MON ke_mean                      =   1.1674978763704E-04
(PID.TID 0000.0001) %MON ke_vol                       =   1.3226782436723E+18
(PID.TID 0000.0001) %MON vort_r_min                   =  -3.7175527846585E-07
(PID.TID 0000.0001) %MON vort_r_max                   =   3.8160414759430E-07
(PID.TID 0000.0001) %MON vort_a_mean                  =  -2.5274807010692E-05
(PID.TID 0000.0001) %MON vort_a_sd                    =   7.3604713252634E-05
(PID.TID 0000.0001) %MON vort_p_mean                  =  -3.1845655312165E-05
(PID.TID 0000.0001) %MON vort_p_sd                    =   1.3162481029069E-04
(PID.TID 0000.0001) %MON surfExpan_theta_mean         =   1.6353343187228E-07
(PID.TID 0000.0001) %MON surfExpan_salt_mean          =   6.1347088495381E-09
(PID.TID 0000.0001) // =======================================================
(PID.TID 0000.0001) // End MONITOR dynamic field statistics
(PID.TID 0000.0001) // =======================================================
 EXTERNAL_FIELDS_LOAD,        83 : iP,iLd,i0,i1=    3    4    3    4 ; Wght=  0.7333333333  0.2666666667
 EXTERNAL_FIELDS_LOAD: (fu0,1),fu,fv= -2.7199E-02 -3.7252E-02 -2.9880E-02 -9.8149E-03
 EXTERNAL_FIELDS_LOAD: SST,SSS,Q,E-P= -1.2544E-01  3.4576E+01  1.8572E+02  8.7310E-06
DEBUG_STATS_RL:          Uvel (THERMODYNAMICS)  min= -1.30111421358369E-01
DEBUG_STATS_RL:          Uvel (THERMODYNAMICS)  max=  1.55724647407634E-01
DEBUG_STATS_RL:          Uvel (THERMODYNAMICS) mean=  6.20310851346880E-03
DEBUG_STATS_RL:          Uvel (THERMODYNAMICS) S.D.=  2.20030663644071E-02
DEBUG_STATS_RL:          Vvel (THERMODYNAMICS)  min= -7.94076885959109E-02
DEBUG_STATS_RL:          Vvel (THERMODYNAMICS)  max=  1.22390884728812E-01
DEBUG_STATS_RL:          Vvel (THERMODYNAMICS) mean=  1.03720722726005E-03
DEBUG_STATS_RL:          Vvel (THERMODYNAMICS) S.D.=  1.28988104748694E-02
DEBUG_STATS_RL:          Wvel (THERMODYNAMICS)  min= -5.92607750563410E-05
DEBUG_STATS_RL:          Wvel (THERMODYNAMICS)  max=  1.39506676315096E-04
DEBUG_STATS_RL:          Wvel (THERMODYNAMICS) mean= -3.33635583130997E-09
DEBUG_STATS_RL:          Wvel (THERMODYNAMICS) S.D.=  8.45115808981980E-06
DEBUG_STATS_RL:         Theta (THERMODYNAMICS)  min= -1.93943073732618E+00
DEBUG_STATS_RL:         Theta (THERMODYNAMICS)  max=  3.11134963651104E+01
DEBUG_STATS_RL:         Theta (THERMODYNAMICS) mean=  3.22121747712301E+00
DEBUG_STATS_RL:         Theta (THERMODYNAMICS) S.D.=  5.88788569046280E+00
DEBUG_STATS_RL:          Salt (THERMODYNAMICS)  min= -3.12250225675825E-17
DEBUG_STATS_RL:          Salt (THERMODYNAMICS)  max=  3.74640703375825E+01
DEBUG_STATS_RL:          Salt (THERMODYNAMICS) mean=  1.88447645634778E+01
DEBUG_STATS_RL:          Salt (THERMODYNAMICS) S.D.=  1.73003158503350E+01
DEBUG_STATS_RL:         GtNm1 (THERMODYNAMICS)  min= -3.73900779415037E-06
DEBUG_STATS_RL:         GtNm1 (THERMODYNAMICS)  max=  2.62572172741929E-06
DEBUG_STATS_RL:         GtNm1 (THERMODYNAMICS) mean= -5.45752718098767E-10
DEBUG_STATS_RL:         GtNm1 (THERMODYNAMICS) S.D.=  1.39016252544625E-07
DEBUG_STATS_RL:         GsNm1 (THERMODYNAMICS)  min= -7.43711745786443E-07
DEBUG_STATS_RL:         GsNm1 (THERMODYNAMICS)  max=  4.99933872502415E-07
DEBUG_STATS_RL:         GsNm1 (THERMODYNAMICS) mean= -1.84463959792899E-11
DEBUG_STATS_RL:         GsNm1 (THERMODYNAMICS) S.D.=  1.43708526920850E-08
DEBUG_STATS_RL:                EtaN (DYNAMICS)  min= -1.86800532410746E+00
DEBUG_STATS_RL:                EtaN (DYNAMICS)  max=  8.96945749018989E-01
DEBUG_STATS_RL:                EtaN (DYNAMICS) mean= -1.88430917010663E-01
DEBUG_STATS_RL:                EtaN (DYNAMICS) S.D.=  7.23158635312889E-01
DEBUG_STATS_RL:                Uvel (DYNAMICS)  min= -1.30111421358369E-01
DEBUG_STATS_RL:                Uvel (DYNAMICS)  max=  1.55724647407634E-01
DEBUG_STATS_RL:                Uvel (DYNAMICS) mean=  6.20310851346880E-03
DEBUG_STATS_RL:                Uvel (DYNAMICS) S.D.=  2.20030663644071E-02
DEBUG_STATS_RL:                Vvel (DYNAMICS)  min= -7.94076885959109E-02
DEBUG_STATS_RL:                Vvel (DYNAMICS)  max=  1.22390884728812E-01
DEBUG_STATS_RL:                Vvel (DYNAMICS) mean=  1.03720722726005E-03
DEBUG_STATS_RL:                Vvel (DYNAMICS) S.D.=  1.28988104748694E-02
DEBUG_STATS_RL:                Wvel (DYNAMICS)  min= -5.92607750563410E-05
DEBUG_STATS_RL:                Wvel (DYNAMICS)  max=  1.39506676315096E-04
DEBUG_STATS_RL:                Wvel (DYNAMICS) mean= -3.33635583130997E-09
DEBUG_STATS_RL:                Wvel (DYNAMICS) S.D.=  8.45115808981980E-06
DEBUG_STATS_RL:               Theta (DYNAMICS)  min= -1.93943073732618E+00
DEBUG_STATS_RL:               Theta (DYNAMICS)  max=  3.11134963651104E+01
DEBUG_STATS_RL:               Theta (DYNAMICS) mean=  3.22121747712301E+00
DEBUG_STATS_RL:               Theta (DYNAMICS) S.D.=  5.88788569046280E+00
DEBUG_STATS_RL:                Salt (DYNAMICS)  min= -3.12250225675825E-17
DEBUG_STATS_RL:                Salt (DYNAMICS)  max=  3.74640703375825E+01
DEBUG_STATS_RL:                Salt (DYNAMICS) mean=  1.88447645634778E+01
DEBUG_STATS_RL:                Salt (DYNAMICS) S.D.=  1.73003158503350E+01
DEBUG_STATS_RL:                  Gu (DYNAMICS)  min= -1.29171534614676E-01
DEBUG_STATS_RL:                  Gu (DYNAMICS)  max=  1.61736305009779E-01
DEBUG_STATS_RL:                  Gu (DYNAMICS) mean=  6.11413110770427E-03
DEBUG_STATS_RL:                  Gu (DYNAMICS) S.D.=  2.23366939001506E-02
DEBUG_STATS_RL:                  Gv (DYNAMICS)  min= -7.78776147469009E-02
DEBUG_STATS_RL:                  Gv (DYNAMICS)  max=  1.18291130256226E-01
DEBUG_STATS_RL:                  Gv (DYNAMICS) mean=  3.67439482591079E-03
DEBUG_STATS_RL:                  Gv (DYNAMICS) S.D.=  1.45102904571126E-02
DEBUG_STATS_RL:               GuNm1 (DYNAMICS)  min= -9.78452694372517E-06
DEBUG_STATS_RL:               GuNm1 (DYNAMICS)  max=  9.22874965089377E-06
DEBUG_STATS_RL:               GuNm1 (DYNAMICS) mean=  9.27118686137300E-09
DEBUG_STATS_RL:               GuNm1 (DYNAMICS) S.D.=  1.22075580418765E-06
DEBUG_STATS_RL:               GvNm1 (DYNAMICS)  min= -9.50339252724249E-06
DEBUG_STATS_RL:               GvNm1 (DYNAMICS)  max=  1.54524706008244E-05
DEBUG_STATS_RL:               GvNm1 (DYNAMICS) mean=  7.37738267906610E-07
DEBUG_STATS_RL:               GvNm1 (DYNAMICS) S.D.=  2.60843584493744E-06
DEBUG_STATS_RL:               GtNm1 (DYNAMICS)  min= -3.73900779415037E-06
DEBUG_STATS_RL:               GtNm1 (DYNAMICS)  max=  2.62572172741929E-06
DEBUG_STATS_RL:               GtNm1 (DYNAMICS) mean= -5.45752718098767E-10
DEBUG_STATS_RL:               GtNm1 (DYNAMICS) S.D.=  1.39016252544625E-07
DEBUG_STATS_RL:               GsNm1 (DYNAMICS)  min= -7.43711745786443E-07
DEBUG_STATS_RL:               GsNm1 (DYNAMICS)  max=  4.99933872502415E-07
DEBUG_STATS_RL:               GsNm1 (DYNAMICS) mean= -1.84463959792899E-11
DEBUG_STATS_RL:               GsNm1 (DYNAMICS) S.D.=  1.43708526920850E-08
DEBUG_STATS_RL:    cg2d_b (SOLVE_FOR_PRESSURE)  min= -2.61275218841341E+04
DEBUG_STATS_RL:    cg2d_b (SOLVE_FOR_PRESSURE)  max=  2.75568491148632E+04
DEBUG_STATS_RL:    cg2d_b (SOLVE_FOR_PRESSURE) mean=  5.39358098896691E+00
DEBUG_STATS_RL:    cg2d_b (SOLVE_FOR_PRESSURE) S.D.=  3.92171591828766E+03
 cg2d: Sum(rhs),rhsMax =   4.53104777596753E-01  1.81000763128057E+00
(PID.TID 0000.0001)  cg2d: iter=     1 ; resid.=  5.36194020424861E-02
(PID.TID 0000.0001)  cg2d: iter=     2 ; resid.=  2.71500714933555E-02
(PID.TID 0000.0001)  cg2d: iter=     3 ; resid.=  1.76305525774196E-02
(PID.TID 0000.0001)  cg2d: iter=     4 ; resid.=  1.60503255992749E-02
(PID.TID 0000.0001)  cg2d: iter=     5 ; resid.=  1.43505029627587E-02
(PID.TID 0000.0001)  cg2d: iter=     6 ; resid.=  1.22613953895627E-02
(PID.TID 0000.0001)  cg2d: iter=     7 ; resid.=  1.12890902929410E-02
(PID.TID 0000.0001)  cg2d: iter=     8 ; resid.=  1.02050473259321E-02
(PID.TID 0000.0001)  cg2d: iter=     9 ; resid.=  8.25363946160418E-03
(PID.TID 0000.0001)  cg2d: iter=    10 ; resid.=  6.62111519907522E-03
(PID.TID 0000.0001)  cg2d: iter=    11 ; resid.=  5.16170906712661E-03
(PID.TID 0000.0001)  cg2d: iter=    12 ; resid.=  4.21946458830249E-03
(PID.TID 0000.0001)  cg2d: iter=    13 ; resid.=  3.36984493978525E-03
(PID.TID 0000.0001)  cg2d: iter=    14 ; resid.=  2.64122066236403E-03
(PID.TID 0000.0001)  cg2d: iter=    15 ; resid.=  2.23572223754193E-03
(PID.TID 0000.0001)  cg2d: iter=    16 ; resid.=  1.75268212367684E-03
(PID.TID 0000.0001)  cg2d: iter=    17 ; resid.=  1.47523230684127E-03
(PID.TID 0000.0001)  cg2d: iter=    18 ; resid.=  1.28869460298044E-03
(PID.TID 0000.0001)  cg2d: iter=    19 ; resid.=  1.21717855588830E-03
(PID.TID 0000.0001)  cg2d: iter=    20 ; resid.=  1.01113551365523E-03
(PID.TID 0000.0001)  cg2d: iter=    21 ; resid.=  8.04266090286205E-04
(PID.TID 0000.0001)  cg2d: iter=    22 ; resid.=  6.56318340802030E-04
(PID.TID 0000.0001)  cg2d: iter=    23 ; resid.=  5.71729657679284E-04
(PID.TID 0000.0001)  cg2d: iter=    24 ; resid.=  5.01010384142198E-04
(PID.TID 0000.0001)  cg2d: iter=    25 ; resid.=  4.61180559406984E-04
(PID.TID 0000.0001)  cg2d: iter=    26 ; resid.=  3.84626749582768E-04
(PID.TID 0000.0001)  cg2d: iter=    27 ; resid.=  3.31233539928052E-04
(PID.TID 0000.0001)  cg2d: iter=    28 ; resid.=  2.77480241239662E-04
(PID.TID 0000.0001)  cg2d: iter=    29 ; resid.=  2.38159057910123E-04
(PID.TID 0000.0001)  cg2d: iter=    30 ; resid.=  2.04259314294207E-04
(PID.TID 0000.0001)  cg2d: iter=    31 ; resid.=  1.65846954139771E-04
(PID.TID 0000.0001)  cg2d: iter=    32 ; resid.=  1.33024522605708E-04
(PID.TID 0000.0001)  cg2d: iter=    33 ; resid.=  1.10079061691934E-04
(PID.TID 0000.0001)  cg2d: iter=    34 ; resid.=  8.66430876821504E-05
(PID.TID 0000.0001)  cg2d: iter=    35 ; resid.=  6.65450711441615E-05
(PID.TID 0000.0001)  cg2d: iter=    36 ; resid.=  5.04454882226076E-05
(PID.TID 0000.0001)  cg2d: iter=    37 ; resid.=  4.33035160226192E-05
(PID.TID 0000.0001)  cg2d: iter=    38 ; resid.=  3.95207204473628E-05
(PID.TID 0000.0001)  cg2d: iter=    39 ; resid.=  3.59904721553354E-05
(PID.TID 0000.0001)  cg2d: iter=    40 ; resid.=  3.10194411074776E-05
(PID.TID 0000.0001)  cg2d: iter=    41 ; resid.=  2.36999071219643E-05
(PID.TID 0000.0001)  cg2d: iter=    42 ; resid.=  2.00181442076798E-05
(PID.TID 0000.0001)  cg2d: iter=    43 ; resid.=  1.67015032058790E-05
(PID.TID 0000.0001)  cg2d: iter=    44 ; resid.=  1.41132101257608E-05
(PID.TID 0000.0001)  cg2d: iter=    45 ; resid.=  1.14146854074319E-05
(PID.TID 0000.0001)  cg2d: iter=    46 ; resid.=  8.61012296084845E-06
(PID.TID 0000.0001)  cg2d: iter=    47 ; resid.=  6.33151404451762E-06
(PID.TID 0000.0001)  cg2d: iter=    48 ; resid.=  4.89800809159629E-06
(PID.TID 0000.0001)  cg2d: iter=    49 ; resid.=  4.10340755027983E-06
(PID.TID 0000.0001)  cg2d: iter=    50 ; resid.=  3.34992598592556E-06
(PID.TID 0000.0001)  cg2d: iter=    51 ; resid.=  2.95079974030958E-06
(PID.TID 0000.0001)  cg2d: iter=    52 ; resid.=  2.63338590135793E-06
(PID.TID 0000.0001)  cg2d: iter=    53 ; resid.=  2.37897330473821E-06
(PID.TID 0000.0001)  cg2d: iter=    54 ; resid.=  2.06122462673022E-06
(PID.TID 0000.0001)  cg2d: iter=    55 ; resid.=  1.69013240298040E-06
(PID.TID 0000.0001)  cg2d: iter=    56 ; resid.=  1.35935898736973E-06
(PID.TID 0000.0001)  cg2d: iter=    57 ; resid.=  1.11423551872198E-06
(PID.TID 0000.0001)  cg2d: iter=    58 ; resid.=  9.29324867830607E-07
(PID.TID 0000.0001)  cg2d: iter=    59 ; resid.=  7.17645661363597E-07
(PID.TID 0000.0001)  cg2d: iter=    60 ; resid.=  5.44874339840107E-07
(PID.TID 0000.0001)  cg2d: iter=    61 ; resid.=  4.36071327217902E-07
(PID.TID 0000.0001)  cg2d: iter=    62 ; resid.=  3.88861604185985E-07
(PID.TID 0000.0001)  cg2d: iter=    63 ; resid.=  3.30892125165607E-07
(PID.TID 0000.0001)  cg2d: iter=    64 ; resid.=  2.49342233319635E-07
(PID.TID 0000.0001)  cg2d: iter=    65 ; resid.=  1.93704882756958E-07
(PID.TID 0000.0001)  cg2d: iter=    66 ; resid.=  1.51554826901103E-07
(PID.TID 0000.0001)  cg2d: iter=    67 ; resid.=  1.16048963372722E-07
(PID.TID 0000.0001)  cg2d: iter=    68 ; resid.=  9.47055575697410E-08
(PID.TID 0000.0001)  cg2d: iter=    69 ; resid.=  7.54361526232212E-08
(PID.TID 0000.0001)  cg2d: iter=    70 ; resid.=  5.87662782735331E-08
(PID.TID 0000.0001)  cg2d: iter=    71 ; resid.=  4.51996370516502E-08
(PID.TID 0000.0001)  cg2d: iter=    72 ; resid.=  3.69271145674369E-08
(PID.TID 0000.0001)  cg2d: iter=    73 ; resid.=  3.15174720808316E-08
(PID.TID 0000.0001)  cg2d: iter=    74 ; resid.=  2.80634219427929E-08
(PID.TID 0000.0001)  cg2d: iter=    75 ; resid.=  2.39982562310481E-08
(PID.TID 0000.0001)  cg2d: iter=    76 ; resid.=  2.03953454614991E-08
(PID.TID 0000.0001)  cg2d: iter=    77 ; resid.=  1.74340918091774E-08
(PID.TID 0000.0001)  cg2d: iter=    78 ; resid.=  1.57968442507527E-08
(PID.TID 0000.0001)  cg2d: iter=    79 ; resid.=  1.33548308237394E-08
(PID.TID 0000.0001)  cg2d: iter=    80 ; resid.=  1.14893128113992E-08
(PID.TID 0000.0001)  cg2d: iter=    81 ; resid.=  1.01734872555078E-08
(PID.TID 0000.0001)  cg2d: iter=    82 ; resid.=  7.77522902132410E-09
(PID.TID 0000.0001)  cg2d: iter=    83 ; resid.=  6.04590525158241E-09
(PID.TID 0000.0001)  cg2d: iter=    84 ; resid.=  4.97095355345175E-09
(PID.TID 0000.0001)  cg2d: iter=    85 ; resid.=  3.77771576408380E-09
(PID.TID 0000.0001)  cg2d: iter=    86 ; resid.=  3.01675784040224E-09
(PID.TID 0000.0001)  cg2d: iter=    87 ; resid.=  2.36267015317308E-09
(PID.TID 0000.0001)  cg2d: iter=    88 ; resid.=  1.74140830174834E-09
(PID.TID 0000.0001)  cg2d: iter=    89 ; resid.=  1.37543199308004E-09
(PID.TID 0000.0001)  cg2d: iter=    90 ; resid.=  1.17127224995175E-09
(PID.TID 0000.0001)  cg2d: iter=    91 ; resid.=  9.86157664801898E-10
(PID.TID 0000.0001)  cg2d: iter=    92 ; resid.=  8.73220557919790E-10
(PID.TID 0000.0001)  cg2d: iter=    93 ; resid.=  7.22773112065087E-10
(PID.TID 0000.0001)  cg2d: iter=    94 ; resid.=  5.62139992098813E-10
(PID.TID 0000.0001)  cg2d: iter=    95 ; resid.=  4.67314140471343E-10
(PID.TID 0000.0001)  cg2d: iter=    96 ; resid.=  3.82128146356902E-10
(PID.TID 0000.0001)  cg2d: iter=    97 ; resid.=  2.96837050778349E-10
(PID.TID 0000.0001)  cg2d: iter=    98 ; resid.=  2.31703181527491E-10
(PID.TID 0000.0001)  cg2d: iter=    99 ; resid.=  1.76991151354230E-10
(PID.TID 0000.0001)  cg2d: iter=   100 ; resid.=  1.60012423460945E-10
(PID.TID 0000.0001)  cg2d: iter=   101 ; resid.=  1.51717944521753E-10
(PID.TID 0000.0001)  cg2d: iter=   102 ; resid.=  1.29754774437007E-10
(PID.TID 0000.0001)  cg2d: iter=   103 ; resid.=  9.26155694670394E-11
(PID.TID 0000.0001)  cg2d: iter=   104 ; resid.=  6.78059620963398E-11
(PID.TID 0000.0001)  cg2d: iter=   105 ; resid.=  5.06227330441858E-11
(PID.TID 0000.0001)  cg2d: iter=   106 ; resid.=  3.80759765190338E-11
(PID.TID 0000.0001)  cg2d: iter=   107 ; resid.=  3.06500407764776E-11
(PID.TID 0000.0001)  cg2d: iter=   108 ; resid.=  2.45188903521776E-11
(PID.TID 0000.0001)  cg2d: iter=   109 ; resid.=  1.90284004082628E-11
(PID.TID 0000.0001)  cg2d: iter=   110 ; resid.=  1.32376233153836E-11
(PID.TID 0000.0001)  cg2d: iter=   111 ; resid.=  1.01911728430126E-11
(PID.TID 0000.0001)  cg2d: iter=   112 ; resid.=  8.37877430292144E-12
(PID.TID 0000.0001)  cg2d: iter=   113 ; resid.=  6.78296329456448E-12
(PID.TID 0000.0001)  cg2d: iter=   114 ; resid.=  5.12110683718349E-12
(PID.TID 0000.0001)  cg2d: iter=   115 ; resid.=  3.89222113724800E-12
(PID.TID 0000.0001)  cg2d: iter=   116 ; resid.=  2.94315803267588E-12
(PID.TID 0000.0001)  cg2d: iter=   117 ; resid.=  2.24723870044425E-12
(PID.TID 0000.0001)  cg2d: iter=   118 ; resid.=  1.69439565767315E-12
(PID.TID 0000.0001)  cg2d: iter=   119 ; resid.=  1.30727365694365E-12
(PID.TID 0000.0001)  cg2d: iter=   120 ; resid.=  1.06883759634393E-12
(PID.TID 0000.0001)  cg2d: iter=   121 ; resid.=  8.11693538825700E-13
(PID.TID 0000.0001)  cg2d: iter=   122 ; resid.=  6.04215120380173E-13
(PID.TID 0000.0001)  cg2d: iter=   123 ; resid.=  4.45966749487533E-13
(PID.TID 0000.0001)  cg2d: iter=   124 ; resid.=  3.24177674768921E-13
(PID.TID 0000.0001)  cg2d: iter=   125 ; resid.=  2.29796763632734E-13
(PID.TID 0000.0001)  cg2d: iter=   126 ; resid.=  1.85696612948388E-13
(PID.TID 0000.0001)  cg2d: iter=   127 ; resid.=  1.42582226572802E-13
(PID.TID 0000.0001)  cg2d: iter=   128 ; resid.=  1.05499102156233E-13
(PID.TID 0000.0001)  cg2d: iter=   129 ; resid.=  6.86418431132624E-14
DEBUG_STATS_RL:    cg2d_x (SOLVE_FOR_PRESSURE)  min= -1.82859905362506E+01
DEBUG_STATS_RL:    cg2d_x (SOLVE_FOR_PRESSURE)  max=  8.80734423331688E+00
DEBUG_STATS_RL:    cg2d_x (SOLVE_FOR_PRESSURE) mean= -1.85282420540318E+00
DEBUG_STATS_RL:    cg2d_x (SOLVE_FOR_PRESSURE) S.D.=  7.11017659353926E+00
(PID.TID 0000.0001)      cg2d_init_res =   1.96766796837363E-01
(PID.TID 0000.0001)      cg2d_iters(min,last) =      -1     129
(PID.TID 0000.0001)      cg2d_last_res =   6.86418431132624E-14
(PID.TID 0000.0001) // =======================================================
(PID.TID 0000.0001) // Begin MONITOR dynamic field statistics
(PID.TID 0000.0001) // =======================================================
(PID.TID 0000.0001) %MON time_tsnumber                =                    84
(PID.TID 0000.0001) %MON time_secondsf                =   7.2576000000000E+06
(PID.TID 0000.0001) %MON dynstat_eta_max              =   8.9779248046048E-01
(PID.TID 0000.0001) %MON dynstat_eta_min              =  -1.8640153451836E+00
(PID.TID 0000.0001) %MON dynstat_eta_mean             =  -5.6275329800225E-03
(PID.TID 0000.0001) %MON dynstat_eta_sd               =   6.2235308132724E-01
(PID.TID 0000.0001) %MON dynstat_eta_del2             =   2.4726799232119E-03
(PID.TID 0000.0001) %MON dynstat_uvel_max             =   1.5737951670093E-01
(PID.TID 0000.0001) %MON dynstat_uvel_min             =  -1.3062460691092E-01
(PID.TID 0000.0001) %MON dynstat_uvel_mean            =   2.6507296761063E-03
(PID.TID 0000.0001) %MON dynstat_uvel_sd              =   1.3733178070989E-02
(PID.TID 0000.0001) %MON dynstat_uvel_del2            =   8.3068176334064E-05
(PID.TID 0000.0001) %MON dynstat_vvel_max             =   1.2134493235156E-01
(PID.TID 0000.0001) %MON dynstat_vvel_min             =  -7.9835079686359E-02
(PID.TID 0000.0001) %MON dynstat_vvel_mean            =   1.7728848483939E-06
(PID.TID 0000.0001) %MON dynstat_vvel_sd              =   7.8217669296473E-03
(PID.TID 0000.0001) %MON dynstat_vvel_del2            =   7.1280306758229E-05
(PID.TID 0000.0001) %MON dynstat_wvel_max             =   1.3481236284614E-04
(PID.TID 0000.0001) %MON dynstat_wvel_min             =  -5.7634017706516E-05
(PID.TID 0000.0001) %MON dynstat_wvel_mean            =  -2.0299176751698E-24
(PID.TID 0000.0001) %MON dynstat_wvel_sd              =   9.4450817932183E-06
(PID.TID 0000.0001) %MON dynstat_wvel_del2            =   9.4338692987356E-08
(PID.TID 0000.0001) %MON dynstat_theta_max            =   3.1113496365110E+01
(PID.TID 0000.0001) %MON dynstat_theta_min            =  -1.9394307373262E+00
(PID.TID 0000.0001) %MON dynstat_theta_mean           =   3.6243089550968E+00
(PID.TID 0000.0001) %MON dynstat_theta_sd             =   4.4282510645416E+00
(PID.TID 0000.0001) %MON dynstat_theta_del2           =   4.8374414057690E-03
(PID.TID 0000.0001) %MON dynstat_salt_max             =   3.7464070337583E+01
(PID.TID 0000.0001) %MON dynstat_salt_min             =   2.9926676431667E+01
(PID.TID 0000.0001) %MON dynstat_salt_mean            =   3.4718000164621E+01
(PID.TID 0000.0001) %MON dynstat_salt_sd              =   2.9660402372225E-01
(PID.TID 0000.0001) %MON dynstat_salt_del2            =   9.9555934029792E-04
(PID.TID 0000.0001) %MON dynstat_sst_max              =   3.1113496365110E+01
(PID.TID 0000.0001) %MON dynstat_sst_min              =  -1.9394307373262E+00
(PID.TID 0000.0001) %MON dynstat_sst_mean             =   1.9056235269184E+01
(PID.TID 0000.0001) %MON dynstat_sst_sd               =   9.2073641128184E+00
(PID.TID 0000.0001) %MON dynstat_sst_del2             =   2.9085292892316E-02
(PID.TID 0000.0001) %MON dynstat_sss_max              =   3.7464070337583E+01
(PID.TID 0000.0001) %MON dynstat_sss_min              =   2.9926676431667E+01
(PID.TID 0000.0001) %MON dynstat_sss_mean             =   3.4837296146324E+01
(PID.TID 0000.0001) %MON dynstat_sss_sd               =   9.8815949041743E-01
(PID.TID 0000.0001) %MON dynstat_sss_del2             =   8.2420341221253E-03
(PID.TID 0000.0001) %MON forcing_qnet_max             =   2.3686581217448E+02
(PID.TID 0000.0001) %MON forcing_qnet_min             =  -1.6043162027995E+02
(PID.TID 0000.0001) %MON forcing_qnet_mean            =  -4.0887745583875E+00
(PID.TID 0000.0001) %MON forcing_qnet_sd              =   4.0727838671898E+01
(PID.TID 0000.0001) %MON forcing_qnet_del2            =   8.0254510514999E-01
(PID.TID 0000.0001) %MON forcing_qsw_max              =   0.0000000000000E+00
(PID.TID 0000.0001) %MON forcing_qsw_min              =   0.0000000000000E+00
(PID.TID 0000.0001) %MON forcing_qsw_mean             =   0.0000000000000E+00
(PID.TID 0000.0001) %MON forcing_qsw_sd               =   0.0000000000000E+00
(PID.TID 0000.0001) %MON forcing_qsw_del2             =   0.0000000000000E+00
(PID.TID 0000.0001) %MON forcing_empmr_max            =   6.8339453681195E-05
(PID.TID 0000.0001) %MON forcing_empmr_min            =  -8.3383186222363E-05
(PID.TID 0000.0001) %MON forcing_empmr_mean           =   3.7114813505816E-07
(PID.TID 0000.0001) %MON forcing_empmr_sd             =   2.5803474193734E-05
(PID.TID 0000.0001) %MON forcing_empmr_del2           =   3.6306311996696E-07
(PID.TID 0000.0001) %MON forcing_fu_max               =   3.5133404135704E-01
(PID.TID 0000.0001) %MON forcing_fu_min               =  -3.9602099657059E-01
(PID.TID 0000.0001) %MON forcing_fu_mean              =   1.9439192524925E-02
(PID.TID 0000.0001) %MON forcing_fu_sd                =   1.0051726632131E-01
(PID.TID 0000.0001) %MON forcing_fu_del2              =   7.9144391050227E-04
(PID.TID 0000.0001) %MON forcing_fv_max               =   1.8253233631452E-01
(PID.TID 0000.0001) %MON forcing_fv_min               =  -1.6606992681821E-01
(PID.TID 0000.0001) %MON forcing_fv_mean              =  -7.2377620610603E-03
(PID.TID 0000.0001) %MON forcing_fv_sd                =   3.9899607945901E-02
(PID.TID 0000.0001) %MON forcing_fv_del2              =   4.4280534116419E-04
(PID.TID 0000.0001) %MON trAdv_CFL_u_max              =   4.0720119951519E-02
(PID.TID 0000.0001) %MON trAdv_CFL_v_max              =   2.3681687787838E-02
(PID.TID 0000.0001) %MON trAdv_CFL_w_max              =   3.0814540295308E-02
(PID.TID 0000.0001) %MON advcfl_uvel_max              =   4.1144491602104E-02
(PID.TID 0000.0001) %MON advcfl_vvel_max              =   2.3575374217170E-02
(PID.TID 0000.0001) %MON advcfl_wvel_max              =   3.1642679485802E-02
(PID.TID 0000.0001) %MON advcfl_W_hf_max              =   3.6141924381359E-02
(PID.TID 0000.0001) %MON pe_b_mean                    =   4.9566744599957E-04
(PID.TID 0000.0001) %MON ke_max                       =   1.2401570916560E-02
(PID.TID 0000.0001) %MON ke_mean                      =   1.1634250339332E-04
(PID.TID 0000.0001) %MON ke_vol                       =   1.3226782436723E+18
(PID.TID 0000.0001) %MON vort_r_min                   =  -3.7157912983091E-07
(PID.TID 0000.0001) %MON vort_r_max                   =   3.7880723506873E-07
(PID.TID 0000.0001) %MON vort_a_mean                  =  -2.5274807007115E-05
(PID.TID 0000.0001) %MON vort_a_sd                    =   7.3604716580140E-05
(PID.TID 0000.0001) %MON vort_p_mean                  =  -3.1845655307659E-05
(PID.TID 0000.0001) %MON vort_p_sd                    =   1.3162481632196E-04
(PID.TID 0000.0001) %MON surfExpan_theta_mean         =   1.7401413567001E-07
(PID.TID 0000.0001) %MON surfExpan_salt_mean          =   1.0311987376621E-09
(PID.TID 0000.0001) // =======================================================
(PID.TID 0000.0001) // End MONITOR dynamic field statistics
(PID.TID 0000.0001) // =======================================================
 EXTERNAL_FIELDS_LOAD,        84 : iP,iLd,i0,i1=    3    4    3    4 ; Wght=  0.7000000000  0.3000000000
 EXTERNAL_FIELDS_LOAD: (fu0,1),fu,fv= -2.7199E-02 -3.7252E-02 -3.0215E-02 -1.0969E-02
 EXTERNAL_FIELDS_LOAD: SST,SSS,Q,E-P= -1.1813E-01  3.4576E+01  1.8201E+02  8.6873E-06
DEBUG_STATS_RL:          Uvel (THERMODYNAMICS)  min= -1.30624606910922E-01
DEBUG_STATS_RL:          Uvel (THERMODYNAMICS)  max=  1.57379516700935E-01
DEBUG_STATS_RL:          Uvel (THERMODYNAMICS) mean=  6.19362646580503E-03
DEBUG_STATS_RL:          Uvel (THERMODYNAMICS) S.D.=  2.19467935991736E-02
DEBUG_STATS_RL:          Vvel (THERMODYNAMICS)  min= -7.98350796863594E-02
DEBUG_STATS_RL:          Vvel (THERMODYNAMICS)  max=  1.21344932351564E-01
DEBUG_STATS_RL:          Vvel (THERMODYNAMICS) mean=  1.02194345835791E-03
DEBUG_STATS_RL:          Vvel (THERMODYNAMICS) S.D.=  1.28341623840073E-02
DEBUG_STATS_RL:          Wvel (THERMODYNAMICS)  min= -5.76340177065156E-05
DEBUG_STATS_RL:          Wvel (THERMODYNAMICS)  max=  1.34812362846136E-04
DEBUG_STATS_RL:          Wvel (THERMODYNAMICS) mean= -9.33808984247908E-09
DEBUG_STATS_RL:          Wvel (THERMODYNAMICS) S.D.=  8.35776804887939E-06
DEBUG_STATS_RL:         Theta (THERMODYNAMICS)  min= -1.93837977054627E+00
DEBUG_STATS_RL:         Theta (THERMODYNAMICS)  max=  3.11324379982415E+01
DEBUG_STATS_RL:         Theta (THERMODYNAMICS) mean=  3.22112889705939E+00
DEBUG_STATS_RL:         Theta (THERMODYNAMICS) S.D.=  5.88811185900194E+00
DEBUG_STATS_RL:          Salt (THERMODYNAMICS)  min= -3.12250225675825E-17
DEBUG_STATS_RL:          Salt (THERMODYNAMICS)  max=  3.74649076254395E+01
DEBUG_STATS_RL:          Salt (THERMODYNAMICS) mean=  1.88447648463566E+01
DEBUG_STATS_RL:          Salt (THERMODYNAMICS) S.D.=  1.73003169908060E+01
DEBUG_STATS_RL:         GtNm1 (THERMODYNAMICS)  min= -3.69946349188140E-06
DEBUG_STATS_RL:         GtNm1 (THERMODYNAMICS)  max=  2.28714106553212E-06
DEBUG_STATS_RL:         GtNm1 (THERMODYNAMICS) mean= -8.15009532676767E-10
DEBUG_STATS_RL:         GtNm1 (THERMODYNAMICS) S.D.=  1.37339607987020E-07
DEBUG_STATS_RL:         GsNm1 (THERMODYNAMICS)  min= -6.57336620538454E-07
DEBUG_STATS_RL:         GsNm1 (THERMODYNAMICS)  max=  4.34435685558514E-07
DEBUG_STATS_RL:         GsNm1 (THERMODYNAMICS) mean= -4.45029038678696E-11
DEBUG_STATS_RL:         GsNm1 (THERMODYNAMICS) S.D.=  1.41160710790665E-08
DEBUG_STATS_RL:                EtaN (DYNAMICS)  min= -1.86401534518357E+00
DEBUG_STATS_RL:                EtaN (DYNAMICS)  max=  8.97792480460480E-01
DEBUG_STATS_RL:                EtaN (DYNAMICS) mean= -1.88870968950375E-01
DEBUG_STATS_RL:                EtaN (DYNAMICS) S.D.=  7.24788643581984E-01
DEBUG_STATS_RL:                Uvel (DYNAMICS)  min= -1.30624606910922E-01
DEBUG_STATS_RL:                Uvel (DYNAMICS)  max=  1.57379516700935E-01
DEBUG_STATS_RL:                Uvel (DYNAMICS) mean=  6.19362646580503E-03
DEBUG_STATS_RL:                Uvel (DYNAMICS) S.D.=  2.19467935991736E-02
DEBUG_STATS_RL:                Vvel (DYNAMICS)  min= -7.98350796863594E-02
DEBUG_STATS_RL:                Vvel (DYNAMICS)  max=  1.21344932351564E-01
DEBUG_STATS_RL:                Vvel (DYNAMICS) mean=  1.02194345835791E-03
DEBUG_STATS_RL:                Vvel (DYNAMICS) S.D.=  1.28341623840073E-02
DEBUG_STATS_RL:                Wvel (DYNAMICS)  min= -5.76340177065156E-05
DEBUG_STATS_RL:                Wvel (DYNAMICS)  max=  1.34812362846136E-04
DEBUG_STATS_RL:                Wvel (DYNAMICS) mean= -9.33808984247908E-09
DEBUG_STATS_RL:                Wvel (DYNAMICS) S.D.=  8.35776804887939E-06
DEBUG_STATS_RL:               Theta (DYNAMICS)  min= -1.93837977054627E+00
DEBUG_STATS_RL:               Theta (DYNAMICS)  max=  3.11324379982415E+01
DEBUG_STATS_RL:               Theta (DYNAMICS) mean=  3.22112889705939E+00
DEBUG_STATS_RL:               Theta (DYNAMICS) S.D.=  5.88811185900194E+00
DEBUG_STATS_RL:                Salt (DYNAMICS)  min= -3.12250225675825E-17
DEBUG_STATS_RL:                Salt (DYNAMICS)  max=  3.74649076254395E+01
DEBUG_STATS_RL:                Salt (DYNAMICS) mean=  1.88447648463566E+01
DEBUG_STATS_RL:                Salt (DYNAMICS) S.D.=  1.73003169908060E+01
DEBUG_STATS_RL:                  Gu (DYNAMICS)  min= -1.29666629728073E-01
DEBUG_STATS_RL:                  Gu (DYNAMICS)  max=  1.62402487476528E-01
DEBUG_STATS_RL:                  Gu (DYNAMICS) mean=  6.10969125535956E-03
DEBUG_STATS_RL:                  Gu (DYNAMICS) S.D.=  2.22842418066657E-02
DEBUG_STATS_RL:                  Gv (DYNAMICS)  min= -7.82797605622442E-02
DEBUG_STATS_RL:                  Gv (DYNAMICS)  max=  1.18300251306912E-01
DEBUG_STATS_RL:                  Gv (DYNAMICS) mean=  3.66011318519435E-03
DEBUG_STATS_RL:                  Gv (DYNAMICS) S.D.=  1.44543688003347E-02
DEBUG_STATS_RL:               GuNm1 (DYNAMICS)  min= -9.74678389840331E-06
DEBUG_STATS_RL:               GuNm1 (DYNAMICS)  max=  9.21146168572315E-06
DEBUG_STATS_RL:               GuNm1 (DYNAMICS) mean=  9.60534888554223E-09
DEBUG_STATS_RL:               GuNm1 (DYNAMICS) S.D.=  1.22120440658718E-06
DEBUG_STATS_RL:               GvNm1 (DYNAMICS)  min= -9.46928134769896E-06
DEBUG_STATS_RL:               GvNm1 (DYNAMICS)  max=  1.54185659450407E-05
DEBUG_STATS_RL:               GvNm1 (DYNAMICS) mean=  7.37860499335858E-07
DEBUG_STATS_RL:               GvNm1 (DYNAMICS) S.D.=  2.60746335463081E-06
DEBUG_STATS_RL:               GtNm1 (DYNAMICS)  min= -3.69946349188140E-06
DEBUG_STATS_RL:               GtNm1 (DYNAMICS)  max=  2.28714106553212E-06
DEBUG_STATS_RL:               GtNm1 (DYNAMICS) mean= -8.15009532676767E-10
DEBUG_STATS_RL:               GtNm1 (DYNAMICS) S.D.=  1.37339607987020E-07
DEBUG_STATS_RL:               GsNm1 (DYNAMICS)  min= -6.57336620538454E-07
DEBUG_STATS_RL:               GsNm1 (DYNAMICS)  max=  4.34435685558514E-07
DEBUG_STATS_RL:               GsNm1 (DYNAMICS) mean= -4.45029038678696E-11
DEBUG_STATS_RL:               GsNm1 (DYNAMICS) S.D.=  1.41160710790665E-08
DEBUG_STATS_RL:    cg2d_b (SOLVE_FOR_PRESSURE)  min= -2.62460355255487E+04
DEBUG_STATS_RL:    cg2d_b (SOLVE_FOR_PRESSURE)  max=  2.77956285516403E+04
DEBUG_STATS_RL:    cg2d_b (SOLVE_FOR_PRESSURE) mean=  5.42147994457314E+00
DEBUG_STATS_RL:    cg2d_b (SOLVE_FOR_PRESSURE) S.D.=  3.92619379085898E+03
 cg2d: Sum(rhs),rhsMax =   4.51535968987722E-01  1.82569130400229E+00
(PID.TID 0000.0001)  cg2d: iter=     1 ; resid.=  5.30907041162584E-02
(PID.TID 0000.0001)  cg2d: iter=     2 ; resid.=  2.73230932984004E-02
(PID.TID 0000.0001)  cg2d: iter=     3 ; resid.=  1.82548095684560E-02
(PID.TID 0000.0001)  cg2d: iter=     4 ; resid.=  1.73475841226831E-02
(PID.TID 0000.0001)  cg2d: iter=     5 ; resid.=  1.57461986138843E-02
(PID.TID 0000.0001)  cg2d: iter=     6 ; resid.=  1.37546868829507E-02
(PID.TID 0000.0001)  cg2d: iter=     7 ; resid.=  1.26580592736107E-02
(PID.TID 0000.0001)  cg2d: iter=     8 ; resid.=  1.12303942498701E-02
(PID.TID 0000.0001)  cg2d: iter=     9 ; resid.=  8.91799846275556E-03
(PID.TID 0000.0001)  cg2d: iter=    10 ; resid.=  6.97379474527864E-03
(PID.TID 0000.0001)  cg2d: iter=    11 ; resid.=  5.34033432651975E-03
(PID.TID 0000.0001)  cg2d: iter=    12 ; resid.=  4.24882929239736E-03
(PID.TID 0000.0001)  cg2d: iter=    13 ; resid.=  3.33286645307945E-03
(PID.TID 0000.0001)  cg2d: iter=    14 ; resid.=  2.57792629796979E-03
(PID.TID 0000.0001)  cg2d: iter=    15 ; resid.=  2.16376223628087E-03
(PID.TID 0000.0001)  cg2d: iter=    16 ; resid.=  1.69094901718273E-03
(PID.TID 0000.0001)  cg2d: iter=    17 ; resid.=  1.41783706506025E-03
(PID.TID 0000.0001)  cg2d: iter=    18 ; resid.=  1.23029615675169E-03
(PID.TID 0000.0001)  cg2d: iter=    19 ; resid.=  1.16350629765946E-03
(PID.TID 0000.0001)  cg2d: iter=    20 ; resid.=  9.70421831182435E-04
(PID.TID 0000.0001)  cg2d: iter=    21 ; resid.=  7.77328815642258E-04
(PID.TID 0000.0001)  cg2d: iter=    22 ; resid.=  6.26628780568934E-04
(PID.TID 0000.0001)  cg2d: iter=    23 ; resid.=  5.35681869558355E-04
(PID.TID 0000.0001)  cg2d: iter=    24 ; resid.=  4.66973495726998E-04
(PID.TID 0000.0001)  cg2d: iter=    25 ; resid.=  4.31842001163269E-04
(PID.TID 0000.0001)  cg2d: iter=    26 ; resid.=  3.55533316029672E-04
(PID.TID 0000.0001)  cg2d: iter=    27 ; resid.=  3.03841820134414E-04
(PID.TID 0000.0001)  cg2d: iter=    28 ; resid.=  2.53629872507447E-04
(PID.TID 0000.0001)  cg2d: iter=    29 ; resid.=  2.17842835474262E-04
(PID.TID 0000.0001)  cg2d: iter=    30 ; resid.=  1.87561086850061E-04
(PID.TID 0000.0001)  cg2d: iter=    31 ; resid.=  1.51815462136190E-04
(PID.TID 0000.0001)  cg2d: iter=    32 ; resid.=  1.23859619293546E-04
(PID.TID 0000.0001)  cg2d: iter=    33 ; resid.=  1.03724432234931E-04
(PID.TID 0000.0001)  cg2d: iter=    34 ; resid.=  8.35820744958971E-05
(PID.TID 0000.0001)  cg2d: iter=    35 ; resid.=  6.62618732470210E-05
(PID.TID 0000.0001)  cg2d: iter=    36 ; resid.=  5.17111257134344E-05
(PID.TID 0000.0001)  cg2d: iter=    37 ; resid.=  4.53701371488984E-05
(PID.TID 0000.0001)  cg2d: iter=    38 ; resid.=  4.20400532875623E-05
(PID.TID 0000.0001)  cg2d: iter=    39 ; resid.=  3.86956984282176E-05
(PID.TID 0000.0001)  cg2d: iter=    40 ; resid.=  3.28996583990840E-05
(PID.TID 0000.0001)  cg2d: iter=    41 ; resid.=  2.49195538873038E-05
(PID.TID 0000.0001)  cg2d: iter=    42 ; resid.=  2.08471798735751E-05
(PID.TID 0000.0001)  cg2d: iter=    43 ; resid.=  1.75235225450340E-05
(PID.TID 0000.0001)  cg2d: iter=    44 ; resid.=  1.50084830719182E-05
(PID.TID 0000.0001)  cg2d: iter=    45 ; resid.=  1.21076360257964E-05
(PID.TID 0000.0001)  cg2d: iter=    46 ; resid.=  9.22488488345049E-06
(PID.TID 0000.0001)  cg2d: iter=    47 ; resid.=  6.93721131932772E-06
(PID.TID 0000.0001)  cg2d: iter=    48 ; resid.=  5.65093360169319E-06
(PID.TID 0000.0001)  cg2d: iter=    49 ; resid.=  4.90275003907266E-06
(PID.TID 0000.0001)  cg2d: iter=    50 ; resid.=  4.07141231187542E-06
(PID.TID 0000.0001)  cg2d: iter=    51 ; resid.=  3.55323615596252E-06
(PID.TID 0000.0001)  cg2d: iter=    52 ; resid.=  3.08388143430058E-06
(PID.TID 0000.0001)  cg2d: iter=    53 ; resid.=  2.70150621187801E-06
(PID.TID 0000.0001)  cg2d: iter=    54 ; resid.=  2.30087326853236E-06
(PID.TID 0000.0001)  cg2d: iter=    55 ; resid.=  1.84780072682563E-06
(PID.TID 0000.0001)  cg2d: iter=    56 ; resid.=  1.47161447216939E-06
(PID.TID 0000.0001)  cg2d: iter=    57 ; resid.=  1.20557477899696E-06
(PID.TID 0000.0001)  cg2d: iter=    58 ; resid.=  1.02439531152848E-06
(PID.TID 0000.0001)  cg2d: iter=    59 ; resid.=  8.07561113530141E-07
(PID.TID 0000.0001)  cg2d: iter=    60 ; resid.=  6.21429027585055E-07
(PID.TID 0000.0001)  cg2d: iter=    61 ; resid.=  4.97776498440128E-07
(PID.TID 0000.0001)  cg2d: iter=    62 ; resid.=  4.42523480144621E-07
(PID.TID 0000.0001)  cg2d: iter=    63 ; resid.=  3.70931288075551E-07
(PID.TID 0000.0001)  cg2d: iter=    64 ; resid.=  2.73519988776191E-07
(PID.TID 0000.0001)  cg2d: iter=    65 ; resid.=  2.07363115157111E-07
(PID.TID 0000.0001)  cg2d: iter=    66 ; resid.=  1.60360865083735E-07
(PID.TID 0000.0001)  cg2d: iter=    67 ; resid.=  1.21887966221939E-07
(PID.TID 0000.0001)  cg2d: iter=    68 ; resid.=  1.00609369917338E-07
(PID.TID 0000.0001)  cg2d: iter=    69 ; resid.=  8.15061460034539E-08
(PID.TID 0000.0001)  cg2d: iter=    70 ; resid.=  6.29399664031597E-08
(PID.TID 0000.0001)  cg2d: iter=    71 ; resid.=  4.82065316050190E-08
(PID.TID 0000.0001)  cg2d: iter=    72 ; resid.=  3.94114386225114E-08
(PID.TID 0000.0001)  cg2d: iter=    73 ; resid.=  3.43435535254261E-08
(PID.TID 0000.0001)  cg2d: iter=    74 ; resid.=  3.08914012116444E-08
(PID.TID 0000.0001)  cg2d: iter=    75 ; resid.=  2.63313137531767E-08
(PID.TID 0000.0001)  cg2d: iter=    76 ; resid.=  2.23033861736965E-08
(PID.TID 0000.0001)  cg2d: iter=    77 ; resid.=  1.93225210208738E-08
(PID.TID 0000.0001)  cg2d: iter=    78 ; resid.=  1.77888829927665E-08
(PID.TID 0000.0001)  cg2d: iter=    79 ; resid.=  1.52649003379217E-08
(PID.TID 0000.0001)  cg2d: iter=    80 ; resid.=  1.29858898271358E-08
(PID.TID 0000.0001)  cg2d: iter=    81 ; resid.=  1.13191602354863E-08
(PID.TID 0000.0001)  cg2d: iter=    82 ; resid.=  8.52274495152981E-09
(PID.TID 0000.0001)  cg2d: iter=    83 ; resid.=  6.59933408296932E-09
(PID.TID 0000.0001)  cg2d: iter=    84 ; resid.=  5.32888936391264E-09
(PID.TID 0000.0001)  cg2d: iter=    85 ; resid.=  3.94486374545265E-09
(PID.TID 0000.0001)  cg2d: iter=    86 ; resid.=  3.07859436264669E-09
(PID.TID 0000.0001)  cg2d: iter=    87 ; resid.=  2.36685764046053E-09
(PID.TID 0000.0001)  cg2d: iter=    88 ; resid.=  1.70659625185101E-09
(PID.TID 0000.0001)  cg2d: iter=    89 ; resid.=  1.32305882584541E-09
(PID.TID 0000.0001)  cg2d: iter=    90 ; resid.=  1.11691033054671E-09
(PID.TID 0000.0001)  cg2d: iter=    91 ; resid.=  9.45343529141715E-10
(PID.TID 0000.0001)  cg2d: iter=    92 ; resid.=  8.55558107788419E-10
(PID.TID 0000.0001)  cg2d: iter=    93 ; resid.=  7.26286951292380E-10
(PID.TID 0000.0001)  cg2d: iter=    94 ; resid.=  5.70449179367211E-10
(PID.TID 0000.0001)  cg2d: iter=    95 ; resid.=  4.71961768253143E-10
(PID.TID 0000.0001)  cg2d: iter=    96 ; resid.=  3.86047861447665E-10
(PID.TID 0000.0001)  cg2d: iter=    97 ; resid.=  2.96360705331313E-10
(PID.TID 0000.0001)  cg2d: iter=    98 ; resid.=  2.26754659186801E-10
(PID.TID 0000.0001)  cg2d: iter=    99 ; resid.=  1.67773282939265E-10
(PID.TID 0000.0001)  cg2d: iter=   100 ; resid.=  1.47773100060376E-10
(PID.TID 0000.0001)  cg2d: iter=   101 ; resid.=  1.43219665211635E-10
(PID.TID 0000.0001)  cg2d: iter=   102 ; resid.=  1.26754722415719E-10
(PID.TID 0000.0001)  cg2d: iter=   103 ; resid.=  9.25561698098012E-11
(PID.TID 0000.0001)  cg2d: iter=   104 ; resid.=  6.88190121040075E-11
(PID.TID 0000.0001)  cg2d: iter=   105 ; resid.=  5.21547498511908E-11
(PID.TID 0000.0001)  cg2d: iter=   106 ; resid.=  3.93776041912093E-11
(PID.TID 0000.0001)  cg2d: iter=   107 ; resid.=  3.19956187881187E-11
(PID.TID 0000.0001)  cg2d: iter=   108 ; resid.=  2.53539079635010E-11
(PID.TID 0000.0001)  cg2d: iter=   109 ; resid.=  1.91164716319581E-11
(PID.TID 0000.0001)  cg2d: iter=   110 ; resid.=  1.29655473980853E-11
(PID.TID 0000.0001)  cg2d: iter=   111 ; resid.=  9.79503600119147E-12
(PID.TID 0000.0001)  cg2d: iter=   112 ; resid.=  7.93737827062184E-12
(PID.TID 0000.0001)  cg2d: iter=   113 ; resid.=  6.45315182089692E-12
(PID.TID 0000.0001)  cg2d: iter=   114 ; resid.=  4.91445368916681E-12
(PID.TID 0000.0001)  cg2d: iter=   115 ; resid.=  3.77140384501791E-12
(PID.TID 0000.0001)  cg2d: iter=   116 ; resid.=  2.88664045829348E-12
(PID.TID 0000.0001)  cg2d: iter=   117 ; resid.=  2.20132503774893E-12
(PID.TID 0000.0001)  cg2d: iter=   118 ; resid.=  1.66420635346760E-12
(PID.TID 0000.0001)  cg2d: iter=   119 ; resid.=  1.29797656163747E-12
(PID.TID 0000.0001)  cg2d: iter=   120 ; resid.=  1.07276004343811E-12
(PID.TID 0000.0001)  cg2d: iter=   121 ; resid.=  8.09854018642786E-13
(PID.TID 0000.0001)  cg2d: iter=   122 ; resid.=  6.07006976741863E-13
(PID.TID 0000.0001)  cg2d: iter=   123 ; resid.=  4.47229148632259E-13
(PID.TID 0000.0001)  cg2d: iter=   124 ; resid.=  3.24588809269077E-13
(PID.TID 0000.0001)  cg2d: iter=   125 ; resid.=  2.33944291067714E-13
(PID.TID 0000.0001)  cg2d: iter=   126 ; resid.=  1.93628290797967E-13
(PID.TID 0000.0001)  cg2d: iter=   127 ; resid.=  1.49426356725384E-13
(PID.TID 0000.0001)  cg2d: iter=   128 ; resid.=  1.09592529856869E-13
(PID.TID 0000.0001)  cg2d: iter=   129 ; resid.=  7.07924031976533E-14
DEBUG_STATS_RL:    cg2d_x (SOLVE_FOR_PRESSURE)  min= -1.82447361865258E+01
DEBUG_STATS_RL:    cg2d_x (SOLVE_FOR_PRESSURE)  max=  8.82393247577629E+00
DEBUG_STATS_RL:    cg2d_x (SOLVE_FOR_PRESSURE) mean= -1.85759986333780E+00
DEBUG_STATS_RL:    cg2d_x (SOLVE_FOR_PRESSURE) S.D.=  7.12847053189728E+00
(PID.TID 0000.0001)      cg2d_init_res =   1.94821910114930E-01
(PID.TID 0000.0001)      cg2d_iters(min,last) =      -1     129
(PID.TID 0000.0001)      cg2d_last_res =   7.07924031976533E-14
(PID.TID 0000.0001) // =======================================================
(PID.TID 0000.0001) // Begin MONITOR dynamic field statistics
(PID.TID 0000.0001) // =======================================================
(PID.TID 0000.0001) %MON time_tsnumber                =                    85
(PID.TID 0000.0001) %MON time_secondsf                =   7.3440000000000E+06
(PID.TID 0000.0001) %MON dynstat_eta_max              =   8.9948343280087E-01
(PID.TID 0000.0001) %MON dynstat_eta_min              =  -1.8598100088201E+00
(PID.TID 0000.0001) %MON dynstat_eta_mean             =  -5.6566420808416E-03
(PID.TID 0000.0001) %MON dynstat_eta_sd               =   6.2418743626296E-01
(PID.TID 0000.0001) %MON dynstat_eta_del2             =   2.4764566668168E-03
(PID.TID 0000.0001) %MON dynstat_uvel_max             =   1.5804108206635E-01
(PID.TID 0000.0001) %MON dynstat_uvel_min             =  -1.3103452775621E-01
(PID.TID 0000.0001) %MON dynstat_uvel_mean            =   2.6672481636219E-03
(PID.TID 0000.0001) %MON dynstat_uvel_sd              =   1.3715486988021E-02
(PID.TID 0000.0001) %MON dynstat_uvel_del2            =   8.3060363752143E-05
(PID.TID 0000.0001) %MON dynstat_vvel_max             =   1.1997906193637E-01
(PID.TID 0000.0001) %MON dynstat_vvel_min             =  -8.0053121851469E-02
(PID.TID 0000.0001) %MON dynstat_vvel_mean            =   9.3665656978545E-07
(PID.TID 0000.0001) %MON dynstat_vvel_sd              =   7.7861827809452E-03
(PID.TID 0000.0001) %MON dynstat_vvel_del2            =   7.1322970538728E-05
(PID.TID 0000.0001) %MON dynstat_wvel_max             =   1.3055154089654E-04
(PID.TID 0000.0001) %MON dynstat_wvel_min             =  -5.6256575788480E-05
(PID.TID 0000.0001) %MON dynstat_wvel_mean            =   9.9477434544760E-23
(PID.TID 0000.0001) %MON dynstat_wvel_sd              =   9.3568761925753E-06
(PID.TID 0000.0001) %MON dynstat_wvel_del2            =   9.3320821747226E-08
(PID.TID 0000.0001) %MON dynstat_theta_max            =   3.1132437998242E+01
(PID.TID 0000.0001) %MON dynstat_theta_min            =  -1.9383797705463E+00
(PID.TID 0000.0001) %MON dynstat_theta_mean           =   3.6243246214414E+00
(PID.TID 0000.0001) %MON dynstat_theta_sd             =   4.4283576456689E+00
(PID.TID 0000.0001) %MON dynstat_theta_del2           =   4.8355796635141E-03
(PID.TID 0000.0001) %MON dynstat_salt_max             =   3.7464907625439E+01
(PID.TID 0000.0001) %MON dynstat_salt_min             =   2.9929450848888E+01
(PID.TID 0000.0001) %MON dynstat_salt_mean            =   3.4718000742678E+01
(PID.TID 0000.0001) %MON dynstat_salt_sd              =   2.9661242006902E-01
(PID.TID 0000.0001) %MON dynstat_salt_del2            =   9.9631566358412E-04
(PID.TID 0000.0001) %MON dynstat_sst_max              =   3.1132437998242E+01
(PID.TID 0000.0001) %MON dynstat_sst_min              =  -1.9383797705463E+00
(PID.TID 0000.0001) %MON dynstat_sst_mean             =   1.9055295639849E+01
(PID.TID 0000.0001) %MON dynstat_sst_sd               =   9.2148397610515E+00
(PID.TID 0000.0001) %MON dynstat_sst_del2             =   2.9143032213581E-02
(PID.TID 0000.0001) %MON dynstat_sss_max              =   3.7464907625439E+01
(PID.TID 0000.0001) %MON dynstat_sss_min              =   2.9929450848888E+01
(PID.TID 0000.0001) %MON dynstat_sss_mean             =   3.4837236652382E+01
(PID.TID 0000.0001) %MON dynstat_sss_sd               =   9.8855860530273E-01
(PID.TID 0000.0001) %MON dynstat_sss_del2             =   8.2572401591782E-03
(PID.TID 0000.0001) %MON forcing_qnet_max             =   2.3216057739258E+02
(PID.TID 0000.0001) %MON forcing_qnet_min             =  -1.6000362396240E+02
(PID.TID 0000.0001) %MON forcing_qnet_mean            =  -3.6917381294179E+00
(PID.TID 0000.0001) %MON forcing_qnet_sd              =   4.0304657455292E+01
(PID.TID 0000.0001) %MON forcing_qnet_del2            =   7.9840269608377E-01
(PID.TID 0000.0001) %MON forcing_qsw_max              =   0.0000000000000E+00
(PID.TID 0000.0001) %MON forcing_qsw_min              =   0.0000000000000E+00
(PID.TID 0000.0001) %MON forcing_qsw_mean             =   0.0000000000000E+00
(PID.TID 0000.0001) %MON forcing_qsw_sd               =   0.0000000000000E+00
(PID.TID 0000.0001) %MON forcing_qsw_del2             =   0.0000000000000E+00
(PID.TID 0000.0001) %MON forcing_empmr_max            =   6.8243282669300E-05
(PID.TID 0000.0001) %MON forcing_empmr_min            =  -8.3398032302284E-05
(PID.TID 0000.0001) %MON forcing_empmr_mean           =   3.4870277023059E-07
(PID.TID 0000.0001) %MON forcing_empmr_sd             =   2.5758635590810E-05
(PID.TID 0000.0001) %MON forcing_empmr_del2           =   3.6296797063557E-07
(PID.TID 0000.0001) %MON forcing_fu_max               =   3.5084198713303E-01
(PID.TID 0000.0001) %MON forcing_fu_min               =  -3.9695406854153E-01
(PID.TID 0000.0001) %MON forcing_fu_mean              =   1.9312000427992E-02
(PID.TID 0000.0001) %MON forcing_fu_sd                =   1.0042160540531E-01
(PID.TID 0000.0001) %MON forcing_fu_del2              =   7.8721937053415E-04
(PID.TID 0000.0001) %MON forcing_fv_max               =   1.8243633508682E-01
(PID.TID 0000.0001) %MON forcing_fv_min               =  -1.6266221404076E-01
(PID.TID 0000.0001) %MON forcing_fv_mean              =  -7.2012853886873E-03
(PID.TID 0000.0001) %MON forcing_fv_sd                =   3.9658030881186E-02
(PID.TID 0000.0001) %MON forcing_fv_del2              =   4.3709035920482E-04
(PID.TID 0000.0001) %MON trAdv_CFL_u_max              =   4.1152848342618E-02
(PID.TID 0000.0001) %MON trAdv_CFL_v_max              =   2.3479304107927E-02
(PID.TID 0000.0001) %MON trAdv_CFL_w_max              =   2.9614302595686E-02
(PID.TID 0000.0001) %MON advcfl_uvel_max              =   4.1317447849475E-02
(PID.TID 0000.0001) %MON advcfl_vvel_max              =   2.3310007501425E-02
(PID.TID 0000.0001) %MON advcfl_wvel_max              =   3.0482094010106E-02
(PID.TID 0000.0001) %MON advcfl_W_hf_max              =   3.6602618806484E-02
(PID.TID 0000.0001) %MON pe_b_mean                    =   4.9859384375187E-04
(PID.TID 0000.0001) %MON ke_max                       =   1.2858732416773E-02
(PID.TID 0000.0001) %MON ke_mean                      =   1.1591245634226E-04
(PID.TID 0000.0001) %MON ke_vol                       =   1.3226782436723E+18
(PID.TID 0000.0001) %MON vort_r_min                   =  -3.7014890006490E-07
(PID.TID 0000.0001) %MON vort_r_max                   =   3.7610630525536E-07
(PID.TID 0000.0001) %MON vort_a_mean                  =  -2.5274807004191E-05
(PID.TID 0000.0001) %MON vort_a_sd                    =   7.3604719320237E-05
(PID.TID 0000.0001) %MON vort_p_mean                  =  -3.1845655303974E-05
(PID.TID 0000.0001) %MON vort_p_sd                    =   1.3162482736419E-04
(PID.TID 0000.0001) %MON surfExpan_theta_mean         =   1.8079374724881E-07
(PID.TID 0000.0001) %MON surfExpan_salt_mean          =  -3.2038851341013E-09
(PID.TID 0000.0001) // =======================================================
(PID.TID 0000.0001) // End MONITOR dynamic field statistics
(PID.TID 0000.0001) // =======================================================
 EXTERNAL_FIELDS_LOAD,        85 : iP,iLd,i0,i1=    3    4    3    4 ; Wght=  0.6666666667  0.3333333333
 EXTERNAL_FIELDS_LOAD: (fu0,1),fu,fv= -2.7199E-02 -3.7252E-02 -3.0550E-02 -1.2124E-02
 EXTERNAL_FIELDS_LOAD: SST,SSS,Q,E-P= -1.1082E-01  3.4576E+01  1.7830E+02  8.6435E-06
DEBUG_STATS_RL:          Uvel (THERMODYNAMICS)  min= -1.31034527756205E-01
DEBUG_STATS_RL:          Uvel (THERMODYNAMICS)  max=  1.58041082066352E-01
DEBUG_STATS_RL:          Uvel (THERMODYNAMICS) mean=  6.18547233400959E-03
DEBUG_STATS_RL:          Uvel (THERMODYNAMICS) S.D.=  2.18942833038517E-02
DEBUG_STATS_RL:          Vvel (THERMODYNAMICS)  min= -8.00531218514694E-02
DEBUG_STATS_RL:          Vvel (THERMODYNAMICS)  max=  1.19979061936366E-01
DEBUG_STATS_RL:          Vvel (THERMODYNAMICS) mean=  1.00172633964981E-03
DEBUG_STATS_RL:          Vvel (THERMODYNAMICS) S.D.=  1.27733387294358E-02
DEBUG_STATS_RL:          Wvel (THERMODYNAMICS)  min= -5.62565757884797E-05
DEBUG_STATS_RL:          Wvel (THERMODYNAMICS)  max=  1.30551540896542E-04
DEBUG_STATS_RL:          Wvel (THERMODYNAMICS) mean= -1.59792682585454E-08
DEBUG_STATS_RL:          Wvel (THERMODYNAMICS) S.D.=  8.27575093597525E-06
DEBUG_STATS_RL:         Theta (THERMODYNAMICS)  min= -1.93732306045272E+00
DEBUG_STATS_RL:         Theta (THERMODYNAMICS)  max=  3.11505378724021E+01
DEBUG_STATS_RL:         Theta (THERMODYNAMICS) mean=  3.22102769541968E+00
DEBUG_STATS_RL:         Theta (THERMODYNAMICS) S.D.=  5.88830621054765E+00
DEBUG_STATS_RL:          Salt (THERMODYNAMICS)  min= -3.12250225675825E-17
DEBUG_STATS_RL:          Salt (THERMODYNAMICS)  max=  3.74657530677393E+01
DEBUG_STATS_RL:          Salt (THERMODYNAMICS) mean=  1.88447637400545E+01
DEBUG_STATS_RL:          Salt (THERMODYNAMICS) S.D.=  1.73003168842026E+01
DEBUG_STATS_RL:         GtNm1 (THERMODYNAMICS)  min= -3.56888851553720E-06
DEBUG_STATS_RL:         GtNm1 (THERMODYNAMICS)  max=  1.81836238709351E-06
DEBUG_STATS_RL:         GtNm1 (THERMODYNAMICS) mean= -1.07285096357216E-09
DEBUG_STATS_RL:         GtNm1 (THERMODYNAMICS) S.D.=  1.34761926733792E-07
DEBUG_STATS_RL:         GsNm1 (THERMODYNAMICS)  min= -5.00576387640347E-07
DEBUG_STATS_RL:         GsNm1 (THERMODYNAMICS)  max=  3.36722184398053E-07
DEBUG_STATS_RL:         GsNm1 (THERMODYNAMICS) mean= -7.36793968047409E-11
DEBUG_STATS_RL:         GsNm1 (THERMODYNAMICS) S.D.=  1.35717749274244E-08
DEBUG_STATS_RL:                EtaN (DYNAMICS)  min= -1.85981000882014E+00
DEBUG_STATS_RL:                EtaN (DYNAMICS)  max=  8.99483432800866E-01
DEBUG_STATS_RL:                EtaN (DYNAMICS) mean= -1.89357784234231E-01
DEBUG_STATS_RL:                EtaN (DYNAMICS) S.D.=  7.26653469102679E-01
DEBUG_STATS_RL:                Uvel (DYNAMICS)  min= -1.31034527756205E-01
DEBUG_STATS_RL:                Uvel (DYNAMICS)  max=  1.58041082066352E-01
DEBUG_STATS_RL:                Uvel (DYNAMICS) mean=  6.18547233400959E-03
DEBUG_STATS_RL:                Uvel (DYNAMICS) S.D.=  2.18942833038517E-02
DEBUG_STATS_RL:                Vvel (DYNAMICS)  min= -8.00531218514694E-02
DEBUG_STATS_RL:                Vvel (DYNAMICS)  max=  1.19979061936366E-01
DEBUG_STATS_RL:                Vvel (DYNAMICS) mean=  1.00172633964981E-03
DEBUG_STATS_RL:                Vvel (DYNAMICS) S.D.=  1.27733387294358E-02
DEBUG_STATS_RL:                Wvel (DYNAMICS)  min= -5.62565757884797E-05
DEBUG_STATS_RL:                Wvel (DYNAMICS)  max=  1.30551540896542E-04
DEBUG_STATS_RL:                Wvel (DYNAMICS) mean= -1.59792682585454E-08
DEBUG_STATS_RL:                Wvel (DYNAMICS) S.D.=  8.27575093597525E-06
DEBUG_STATS_RL:               Theta (DYNAMICS)  min= -1.93732306045272E+00
DEBUG_STATS_RL:               Theta (DYNAMICS)  max=  3.11505378724021E+01
DEBUG_STATS_RL:               Theta (DYNAMICS) mean=  3.22102769541968E+00
DEBUG_STATS_RL:               Theta (DYNAMICS) S.D.=  5.88830621054765E+00
DEBUG_STATS_RL:                Salt (DYNAMICS)  min= -3.12250225675825E-17
DEBUG_STATS_RL:                Salt (DYNAMICS)  max=  3.74657530677393E+01
DEBUG_STATS_RL:                Salt (DYNAMICS) mean=  1.88447637400545E+01
DEBUG_STATS_RL:                Salt (DYNAMICS) S.D.=  1.73003168842026E+01
DEBUG_STATS_RL:                  Gu (DYNAMICS)  min= -1.30060295148515E-01
DEBUG_STATS_RL:                  Gu (DYNAMICS)  max=  1.62090386678887E-01
DEBUG_STATS_RL:                  Gu (DYNAMICS) mean=  6.10769275499025E-03
DEBUG_STATS_RL:                  Gu (DYNAMICS) S.D.=  2.22392184360211E-02
DEBUG_STATS_RL:                  Gv (DYNAMICS)  min= -7.84733744032313E-02
DEBUG_STATS_RL:                  Gv (DYNAMICS)  max=  1.19652746892257E-01
DEBUG_STATS_RL:                  Gv (DYNAMICS) mean=  3.64175458009063E-03
DEBUG_STATS_RL:                  Gv (DYNAMICS) S.D.=  1.43987580111128E-02
DEBUG_STATS_RL:               GuNm1 (DYNAMICS)  min= -9.70804453278913E-06
DEBUG_STATS_RL:               GuNm1 (DYNAMICS)  max=  9.19057981640830E-06
DEBUG_STATS_RL:               GuNm1 (DYNAMICS) mean=  9.96994028085739E-09
DEBUG_STATS_RL:               GuNm1 (DYNAMICS) S.D.=  1.22168621942984E-06
DEBUG_STATS_RL:               GvNm1 (DYNAMICS)  min= -9.43857656802686E-06
DEBUG_STATS_RL:               GvNm1 (DYNAMICS)  max=  1.53826285999813E-05
DEBUG_STATS_RL:               GvNm1 (DYNAMICS) mean=  7.37967257803249E-07
DEBUG_STATS_RL:               GvNm1 (DYNAMICS) S.D.=  2.60651398830545E-06
DEBUG_STATS_RL:               GtNm1 (DYNAMICS)  min= -3.56888851553720E-06
DEBUG_STATS_RL:               GtNm1 (DYNAMICS)  max=  1.81836238709351E-06
DEBUG_STATS_RL:               GtNm1 (DYNAMICS) mean= -1.07285096357216E-09
DEBUG_STATS_RL:               GtNm1 (DYNAMICS) S.D.=  1.34761926733792E-07
DEBUG_STATS_RL:               GsNm1 (DYNAMICS)  min= -5.00576387640347E-07
DEBUG_STATS_RL:               GsNm1 (DYNAMICS)  max=  3.36722184398053E-07
DEBUG_STATS_RL:               GsNm1 (DYNAMICS) mean= -7.36793968047409E-11
DEBUG_STATS_RL:               GsNm1 (DYNAMICS) S.D.=  1.35717749274244E-08
DEBUG_STATS_RL:    cg2d_b (SOLVE_FOR_PRESSURE)  min= -2.63638872375621E+04
DEBUG_STATS_RL:    cg2d_b (SOLVE_FOR_PRESSURE)  max=  2.80151934865507E+04
DEBUG_STATS_RL:    cg2d_b (SOLVE_FOR_PRESSURE) mean=  5.44758309501139E+00
DEBUG_STATS_RL:    cg2d_b (SOLVE_FOR_PRESSURE) S.D.=  3.93117594863401E+03
 cg2d: Sum(rhs),rhsMax =   4.50154123369006E-01  1.84011291679601E+00
(PID.TID 0000.0001)  cg2d: iter=     1 ; resid.=  5.25257300302853E-02
(PID.TID 0000.0001)  cg2d: iter=     2 ; resid.=  2.75346896527954E-02
(PID.TID 0000.0001)  cg2d: iter=     3 ; resid.=  1.90679144064331E-02
(PID.TID 0000.0001)  cg2d: iter=     4 ; resid.=  1.89648370552673E-02
(PID.TID 0000.0001)  cg2d: iter=     5 ; resid.=  1.74648635565328E-02
(PID.TID 0000.0001)  cg2d: iter=     6 ; resid.=  1.55424332226906E-02
(PID.TID 0000.0001)  cg2d: iter=     7 ; resid.=  1.41666392083678E-02
(PID.TID 0000.0001)  cg2d: iter=     8 ; resid.=  1.22719424085795E-02
(PID.TID 0000.0001)  cg2d: iter=     9 ; resid.=  9.60925901215592E-03
(PID.TID 0000.0001)  cg2d: iter=    10 ; resid.=  7.36773815011035E-03
(PID.TID 0000.0001)  cg2d: iter=    11 ; resid.=  5.58130110058326E-03
(PID.TID 0000.0001)  cg2d: iter=    12 ; resid.=  4.37635591151461E-03
(PID.TID 0000.0001)  cg2d: iter=    13 ; resid.=  3.42097602078107E-03
(PID.TID 0000.0001)  cg2d: iter=    14 ; resid.=  2.66575641257734E-03
(PID.TID 0000.0001)  cg2d: iter=    15 ; resid.=  2.25398838443649E-03
(PID.TID 0000.0001)  cg2d: iter=    16 ; resid.=  1.78271623292635E-03
(PID.TID 0000.0001)  cg2d: iter=    17 ; resid.=  1.51022583438356E-03
(PID.TID 0000.0001)  cg2d: iter=    18 ; resid.=  1.31421450019087E-03
(PID.TID 0000.0001)  cg2d: iter=    19 ; resid.=  1.23624933197248E-03
(PID.TID 0000.0001)  cg2d: iter=    20 ; resid.=  1.02492991255491E-03
(PID.TID 0000.0001)  cg2d: iter=    21 ; resid.=  8.20209548744109E-04
(PID.TID 0000.0001)  cg2d: iter=    22 ; resid.=  6.50432408393191E-04
(PID.TID 0000.0001)  cg2d: iter=    23 ; resid.=  5.44369354668544E-04
(PID.TID 0000.0001)  cg2d: iter=    24 ; resid.=  4.71724539666938E-04
(PID.TID 0000.0001)  cg2d: iter=    25 ; resid.=  4.35786680271018E-04
(PID.TID 0000.0001)  cg2d: iter=    26 ; resid.=  3.53308331941979E-04
(PID.TID 0000.0001)  cg2d: iter=    27 ; resid.=  2.97802814664535E-04
(PID.TID 0000.0001)  cg2d: iter=    28 ; resid.=  2.45392195048077E-04
(PID.TID 0000.0001)  cg2d: iter=    29 ; resid.=  2.08198539327343E-04
(PID.TID 0000.0001)  cg2d: iter=    30 ; resid.=  1.77296102990468E-04
(PID.TID 0000.0001)  cg2d: iter=    31 ; resid.=  1.41074020040074E-04
(PID.TID 0000.0001)  cg2d: iter=    32 ; resid.=  1.15281561712825E-04
(PID.TID 0000.0001)  cg2d: iter=    33 ; resid.=  9.58075961116853E-05
(PID.TID 0000.0001)  cg2d: iter=    34 ; resid.=  7.77715773325203E-05
(PID.TID 0000.0001)  cg2d: iter=    35 ; resid.=  6.25423568009678E-05
(PID.TID 0000.0001)  cg2d: iter=    36 ; resid.=  4.93429032708933E-05
(PID.TID 0000.0001)  cg2d: iter=    37 ; resid.=  4.33416786927407E-05
(PID.TID 0000.0001)  cg2d: iter=    38 ; resid.=  4.02334825744153E-05
(PID.TID 0000.0001)  cg2d: iter=    39 ; resid.=  3.74123024358469E-05
(PID.TID 0000.0001)  cg2d: iter=    40 ; resid.=  3.16884370001995E-05
(PID.TID 0000.0001)  cg2d: iter=    41 ; resid.=  2.40307949364454E-05
(PID.TID 0000.0001)  cg2d: iter=    42 ; resid.=  2.00850622944743E-05
(PID.TID 0000.0001)  cg2d: iter=    43 ; resid.=  1.72344755291342E-05
(PID.TID 0000.0001)  cg2d: iter=    44 ; resid.=  1.51299345028596E-05
(PID.TID 0000.0001)  cg2d: iter=    45 ; resid.=  1.23859957696992E-05
(PID.TID 0000.0001)  cg2d: iter=    46 ; resid.=  9.67361947233458E-06
(PID.TID 0000.0001)  cg2d: iter=    47 ; resid.=  7.52638543048081E-06
(PID.TID 0000.0001)  cg2d: iter=    48 ; resid.=  6.45170367900246E-06
(PID.TID 0000.0001)  cg2d: iter=    49 ; resid.=  5.73267166273026E-06
(PID.TID 0000.0001)  cg2d: iter=    50 ; resid.=  4.79330040110693E-06
(PID.TID 0000.0001)  cg2d: iter=    51 ; resid.=  4.12422662252129E-06
(PID.TID 0000.0001)  cg2d: iter=    52 ; resid.=  3.49996005267978E-06
(PID.TID 0000.0001)  cg2d: iter=    53 ; resid.=  3.03530215924059E-06
(PID.TID 0000.0001)  cg2d: iter=    54 ; resid.=  2.60954807411221E-06
(PID.TID 0000.0001)  cg2d: iter=    55 ; resid.=  2.10881542598565E-06
(PID.TID 0000.0001)  cg2d: iter=    56 ; resid.=  1.69512735850293E-06
(PID.TID 0000.0001)  cg2d: iter=    57 ; resid.=  1.40744556020173E-06
(PID.TID 0000.0001)  cg2d: iter=    58 ; resid.=  1.21930570078915E-06
(PID.TID 0000.0001)  cg2d: iter=    59 ; resid.=  9.69085229417750E-07
(PID.TID 0000.0001)  cg2d: iter=    60 ; resid.=  7.47710566215746E-07
(PID.TID 0000.0001)  cg2d: iter=    61 ; resid.=  5.96560410850502E-07
(PID.TID 0000.0001)  cg2d: iter=    62 ; resid.=  5.25099042151199E-07
(PID.TID 0000.0001)  cg2d: iter=    63 ; resid.=  4.36692924333442E-07
(PID.TID 0000.0001)  cg2d: iter=    64 ; resid.=  3.22515216917677E-07
(PID.TID 0000.0001)  cg2d: iter=    65 ; resid.=  2.46714185426770E-07
(PID.TID 0000.0001)  cg2d: iter=    66 ; resid.=  1.95173827187525E-07
(PID.TID 0000.0001)  cg2d: iter=    67 ; resid.=  1.54227417437426E-07
(PID.TID 0000.0001)  cg2d: iter=    68 ; resid.=  1.34818377583281E-07
(PID.TID 0000.0001)  cg2d: iter=    69 ; resid.=  1.14846098652381E-07
(PID.TID 0000.0001)  cg2d: iter=    70 ; resid.=  9.16149284053710E-08
(PID.TID 0000.0001)  cg2d: iter=    71 ; resid.=  7.39235234774393E-08
(PID.TID 0000.0001)  cg2d: iter=    72 ; resid.=  6.49890199605990E-08
(PID.TID 0000.0001)  cg2d: iter=    73 ; resid.=  6.04199264622786E-08
(PID.TID 0000.0001)  cg2d: iter=    74 ; resid.=  5.50215767248641E-08
(PID.TID 0000.0001)  cg2d: iter=    75 ; resid.=  4.57402336416692E-08
(PID.TID 0000.0001)  cg2d: iter=    76 ; resid.=  3.75282656919796E-08
(PID.TID 0000.0001)  cg2d: iter=    77 ; resid.=  3.15566513189466E-08
(PID.TID 0000.0001)  cg2d: iter=    78 ; resid.=  2.78364040124908E-08
(PID.TID 0000.0001)  cg2d: iter=    79 ; resid.=  2.24222044371115E-08
(PID.TID 0000.0001)  cg2d: iter=    80 ; resid.=  1.73548068176691E-08
(PID.TID 0000.0001)  cg2d: iter=    81 ; resid.=  1.38444916859067E-08
(PID.TID 0000.0001)  cg2d: iter=    82 ; resid.=  9.79666243349497E-09
(PID.TID 0000.0001)  cg2d: iter=    83 ; resid.=  7.34839657168932E-09
(PID.TID 0000.0001)  cg2d: iter=    84 ; resid.=  5.69687973145971E-09
(PID.TID 0000.0001)  cg2d: iter=    85 ; resid.=  4.05714449253645E-09
(PID.TID 0000.0001)  cg2d: iter=    86 ; resid.=  3.06377930966859E-09
(PID.TID 0000.0001)  cg2d: iter=    87 ; resid.=  2.29562310805708E-09
(PID.TID 0000.0001)  cg2d: iter=    88 ; resid.=  1.60699687537584E-09
(PID.TID 0000.0001)  cg2d: iter=    89 ; resid.=  1.20468456595521E-09
(PID.TID 0000.0001)  cg2d: iter=    90 ; resid.=  9.80622181170946E-10
(PID.TID 0000.0001)  cg2d: iter=    91 ; resid.=  8.06262574779860E-10
(PID.TID 0000.0001)  cg2d: iter=    92 ; resid.=  7.25405496392642E-10
(PID.TID 0000.0001)  cg2d: iter=    93 ; resid.=  6.25454441619284E-10
(PID.TID 0000.0001)  cg2d: iter=    94 ; resid.=  4.95265908944659E-10
(PID.TID 0000.0001)  cg2d: iter=    95 ; resid.=  4.04731779688495E-10
(PID.TID 0000.0001)  cg2d: iter=    96 ; resid.=  3.31404436227464E-10
(PID.TID 0000.0001)  cg2d: iter=    97 ; resid.=  2.52450492339721E-10
(PID.TID 0000.0001)  cg2d: iter=    98 ; resid.=  1.88769980453249E-10
(PID.TID 0000.0001)  cg2d: iter=    99 ; resid.=  1.33041933451712E-10
(PID.TID 0000.0001)  cg2d: iter=   100 ; resid.=  1.10639237687617E-10
(PID.TID 0000.0001)  cg2d: iter=   101 ; resid.=  1.09031271151672E-10
(PID.TID 0000.0001)  cg2d: iter=   102 ; resid.=  1.03559122371187E-10
(PID.TID 0000.0001)  cg2d: iter=   103 ; resid.=  8.08945454332383E-11
(PID.TID 0000.0001)  cg2d: iter=   104 ; resid.=  6.31974737614772E-11
(PID.TID 0000.0001)  cg2d: iter=   105 ; resid.=  4.94417832001445E-11
(PID.TID 0000.0001)  cg2d: iter=   106 ; resid.=  3.75703998183985E-11
(PID.TID 0000.0001)  cg2d: iter=   107 ; resid.=  3.07790795043058E-11
(PID.TID 0000.0001)  cg2d: iter=   108 ; resid.=  2.42741650624702E-11
(PID.TID 0000.0001)  cg2d: iter=   109 ; resid.=  1.79094616553675E-11
(PID.TID 0000.0001)  cg2d: iter=   110 ; resid.=  1.17629718154683E-11
(PID.TID 0000.0001)  cg2d: iter=   111 ; resid.=  8.53013795024248E-12
(PID.TID 0000.0001)  cg2d: iter=   112 ; resid.=  6.68361256937378E-12
(PID.TID 0000.0001)  cg2d: iter=   113 ; resid.=  5.44245436655062E-12
(PID.TID 0000.0001)  cg2d: iter=   114 ; resid.=  4.21521325981801E-12
(PID.TID 0000.0001)  cg2d: iter=   115 ; resid.=  3.30683662416679E-12
(PID.TID 0000.0001)  cg2d: iter=   116 ; resid.=  2.56522531866391E-12
(PID.TID 0000.0001)  cg2d: iter=   117 ; resid.=  1.96226008364411E-12
(PID.TID 0000.0001)  cg2d: iter=   118 ; resid.=  1.49947640436877E-12
(PID.TID 0000.0001)  cg2d: iter=   119 ; resid.=  1.17951896179894E-12
(PID.TID 0000.0001)  cg2d: iter=   120 ; resid.=  9.74988868811708E-13
(PID.TID 0000.0001)  cg2d: iter=   121 ; resid.=  7.30848878678903E-13
(PID.TID 0000.0001)  cg2d: iter=   122 ; resid.=  5.54254126742569E-13
(PID.TID 0000.0001)  cg2d: iter=   123 ; resid.=  4.10970873585153E-13
(PID.TID 0000.0001)  cg2d: iter=   124 ; resid.=  2.99945831204782E-13
(PID.TID 0000.0001)  cg2d: iter=   125 ; resid.=  2.20589927463993E-13
(PID.TID 0000.0001)  cg2d: iter=   126 ; resid.=  1.87500441911074E-13
(PID.TID 0000.0001)  cg2d: iter=   127 ; resid.=  1.46447370910636E-13
(PID.TID 0000.0001)  cg2d: iter=   128 ; resid.=  1.08169253965679E-13
(PID.TID 0000.0001)  cg2d: iter=   129 ; resid.=  7.03208550104357E-14
DEBUG_STATS_RL:    cg2d_x (SOLVE_FOR_PRESSURE)  min= -1.82023306465598E+01
DEBUG_STATS_RL:    cg2d_x (SOLVE_FOR_PRESSURE)  max=  8.84718731740096E+00
DEBUG_STATS_RL:    cg2d_x (SOLVE_FOR_PRESSURE) mean= -1.86269702543609E+00
DEBUG_STATS_RL:    cg2d_x (SOLVE_FOR_PRESSURE) S.D.=  7.14855848200977E+00
(PID.TID 0000.0001)      cg2d_init_res =   1.93158456273887E-01
(PID.TID 0000.0001)      cg2d_iters(min,last) =      -1     129
(PID.TID 0000.0001)      cg2d_last_res =   7.03208550104357E-14
(PID.TID 0000.0001) // =======================================================
(PID.TID 0000.0001) // Begin MONITOR dynamic field statistics
(PID.TID 0000.0001) // =======================================================
(PID.TID 0000.0001) %MON time_tsnumber                =                    86
(PID.TID 0000.0001) %MON time_secondsf                =   7.4304000000000E+06
(PID.TID 0000.0001) %MON dynstat_eta_max              =   9.0185395692167E-01
(PID.TID 0000.0001) %MON dynstat_eta_min              =  -1.8554873238084E+00
(PID.TID 0000.0001) %MON dynstat_eta_mean             =  -5.6838774816403E-03
(PID.TID 0000.0001) %MON dynstat_eta_sd               =   6.2624994762094E-01
(PID.TID 0000.0001) %MON dynstat_eta_del2             =   2.4802281371961E-03
(PID.TID 0000.0001) %MON dynstat_uvel_max             =   1.5773403159269E-01
(PID.TID 0000.0001) %MON dynstat_uvel_min             =  -1.3133708583768E-01
(PID.TID 0000.0001) %MON dynstat_uvel_mean            =   2.6811846977936E-03
(PID.TID 0000.0001) %MON dynstat_uvel_sd              =   1.3696835494478E-02
(PID.TID 0000.0001) %MON dynstat_uvel_del2            =   8.3042301272602E-05
(PID.TID 0000.0001) %MON dynstat_vvel_max             =   1.2044737669768E-01
(PID.TID 0000.0001) %MON dynstat_vvel_min             =  -8.0068497796260E-02
(PID.TID 0000.0001) %MON dynstat_vvel_mean            =   4.8761678649975E-07
(PID.TID 0000.0001) %MON dynstat_vvel_sd              =   7.7537019682328E-03
(PID.TID 0000.0001) %MON dynstat_vvel_del2            =   7.1424230016876E-05
(PID.TID 0000.0001) %MON dynstat_wvel_max             =   1.2692345219805E-04
(PID.TID 0000.0001) %MON dynstat_wvel_min             =  -5.5155476436869E-05
(PID.TID 0000.0001) %MON dynstat_wvel_mean            =   9.9546245313410E-24
(PID.TID 0000.0001) %MON dynstat_wvel_sd              =   9.2796460971128E-06
(PID.TID 0000.0001) %MON dynstat_wvel_del2            =   9.2379529877081E-08
(PID.TID 0000.0001) %MON dynstat_theta_max            =   3.1150537872402E+01
(PID.TID 0000.0001) %MON dynstat_theta_min            =  -1.9373230604527E+00
(PID.TID 0000.0001) %MON dynstat_theta_mean           =   3.6243379462896E+00
(PID.TID 0000.0001) %MON dynstat_theta_sd             =   4.4284547520390E+00
(PID.TID 0000.0001) %MON dynstat_theta_del2           =   4.8332613844560E-03
(PID.TID 0000.0001) %MON dynstat_salt_max             =   3.7465753067739E+01
(PID.TID 0000.0001) %MON dynstat_salt_min             =   2.9932234709619E+01
(PID.TID 0000.0001) %MON dynstat_salt_mean            =   3.4718001387916E+01
(PID.TID 0000.0001) %MON dynstat_salt_sd              =   2.9662101855739E-01
(PID.TID 0000.0001) %MON dynstat_salt_del2            =   9.9696921969098E-04
(PID.TID 0000.0001) %MON dynstat_sst_max              =   3.1150537872402E+01
(PID.TID 0000.0001) %MON dynstat_sst_min              =  -1.9373230604527E+00
(PID.TID 0000.0001) %MON dynstat_sst_mean             =   1.9053992974378E+01
(PID.TID 0000.0001) %MON dynstat_sst_sd               =   9.2223656863782E+00
(PID.TID 0000.0001) %MON dynstat_sst_del2             =   2.9190720589352E-02
(PID.TID 0000.0001) %MON dynstat_sss_max              =   3.7465753067739E+01
(PID.TID 0000.0001) %MON dynstat_sss_min              =   2.9932234709619E+01
(PID.TID 0000.0001) %MON dynstat_sss_mean             =   3.4837151612493E+01
(PID.TID 0000.0001) %MON dynstat_sss_sd               =   9.8898069568503E-01
(PID.TID 0000.0001) %MON dynstat_sss_del2             =   8.2710652553584E-03
(PID.TID 0000.0001) %MON forcing_qnet_max             =   2.2745534261068E+02
(PID.TID 0000.0001) %MON forcing_qnet_min             =  -1.5957562764486E+02
(PID.TID 0000.0001) %MON forcing_qnet_mean            =  -3.2947017004483E+00
(PID.TID 0000.0001) %MON forcing_qnet_sd              =   3.9956383247608E+01
(PID.TID 0000.0001) %MON forcing_qnet_del2            =   7.9475318361249E-01
(PID.TID 0000.0001) %MON forcing_qsw_max              =   0.0000000000000E+00
(PID.TID 0000.0001) %MON forcing_qsw_min              =   0.0000000000000E+00
(PID.TID 0000.0001) %MON forcing_qsw_mean             =   0.0000000000000E+00
(PID.TID 0000.0001) %MON forcing_qsw_sd               =   0.0000000000000E+00
(PID.TID 0000.0001) %MON forcing_qsw_del2             =   0.0000000000000E+00
(PID.TID 0000.0001) %MON forcing_empmr_max            =   6.8147111657405E-05
(PID.TID 0000.0001) %MON forcing_empmr_min            =  -8.3412878382205E-05
(PID.TID 0000.0001) %MON forcing_empmr_mean           =   3.2625740540304E-07
(PID.TID 0000.0001) %MON forcing_empmr_sd             =   2.5717379388333E-05
(PID.TID 0000.0001) %MON forcing_empmr_del2           =   3.6294743074173E-07
(PID.TID 0000.0001) %MON forcing_fu_max               =   3.5034993290901E-01
(PID.TID 0000.0001) %MON forcing_fu_min               =  -3.9788714051247E-01
(PID.TID 0000.0001) %MON forcing_fu_mean              =   1.9184808331060E-02
(PID.TID 0000.0001) %MON forcing_fu_sd                =   1.0034993850227E-01
(PID.TID 0000.0001) %MON forcing_fu_del2              =   7.8368532274322E-04
(PID.TID 0000.0001) %MON forcing_fv_max               =   1.8234033385913E-01
(PID.TID 0000.0001) %MON forcing_fv_min               =  -1.5925450126330E-01
(PID.TID 0000.0001) %MON forcing_fv_mean              =  -7.1648087163143E-03
(PID.TID 0000.0001) %MON forcing_fv_sd                =   3.9441832348840E-02
(PID.TID 0000.0001) %MON forcing_fv_del2              =   4.3198785440953E-04
(PID.TID 0000.0001) %MON trAdv_CFL_u_max              =   4.1325839718640E-02
(PID.TID 0000.0001) %MON trAdv_CFL_v_max              =   2.3215018766719E-02
(PID.TID 0000.0001) %MON trAdv_CFL_w_max              =   2.8528113624843E-02
(PID.TID 0000.0001) %MON advcfl_uvel_max              =   4.1237174152491E-02
(PID.TID 0000.0001) %MON advcfl_vvel_max              =   2.3400993548683E-02
(PID.TID 0000.0001) %MON advcfl_wvel_max              =   3.0122193014360E-02
(PID.TID 0000.0001) %MON advcfl_W_hf_max              =   3.6576948660294E-02
(PID.TID 0000.0001) %MON pe_b_mean                    =   5.0189443319113E-04
(PID.TID 0000.0001) %MON ke_max                       =   1.3210932184232E-02
(PID.TID 0000.0001) %MON ke_mean                      =   1.1548743394814E-04
(PID.TID 0000.0001) %MON ke_vol                       =   1.3226782436723E+18
(PID.TID 0000.0001) %MON vort_r_min                   =  -3.6766918772227E-07
(PID.TID 0000.0001) %MON vort_r_max                   =   3.7353468008432E-07
(PID.TID 0000.0001) %MON vort_a_mean                  =  -2.5274807002142E-05
(PID.TID 0000.0001) %MON vort_a_sd                    =   7.3604721469806E-05
(PID.TID 0000.0001) %MON vort_p_mean                  =  -3.1845655301393E-05
(PID.TID 0000.0001) %MON vort_p_sd                    =   1.3162484343719E-04
(PID.TID 0000.0001) %MON surfExpan_theta_mean         =   1.8388531601389E-07
(PID.TID 0000.0001) %MON surfExpan_salt_mean          =  -6.5004646698872E-09
(PID.TID 0000.0001) // =======================================================
(PID.TID 0000.0001) // End MONITOR dynamic field statistics
(PID.TID 0000.0001) // =======================================================
 EXTERNAL_FIELDS_LOAD,        86 : iP,iLd,i0,i1=    3    4    3    4 ; Wght=  0.6333333333  0.3666666667
 EXTERNAL_FIELDS_LOAD: (fu0,1),fu,fv= -2.7199E-02 -3.7252E-02 -3.0885E-02 -1.3279E-02
 EXTERNAL_FIELDS_LOAD: SST,SSS,Q,E-P= -1.0352E-01  3.4575E+01  1.7459E+02  8.5998E-06
DEBUG_STATS_RL:          Uvel (THERMODYNAMICS)  min= -1.31337085837678E-01
DEBUG_STATS_RL:          Uvel (THERMODYNAMICS)  max=  1.57734031592687E-01
DEBUG_STATS_RL:          Uvel (THERMODYNAMICS) mean=  6.17939353231641E-03
DEBUG_STATS_RL:          Uvel (THERMODYNAMICS) S.D.=  2.18489244217126E-02
DEBUG_STATS_RL:          Vvel (THERMODYNAMICS)  min= -8.00684977962596E-02
DEBUG_STATS_RL:          Vvel (THERMODYNAMICS)  max=  1.20447376697680E-01
DEBUG_STATS_RL:          Vvel (THERMODYNAMICS) mean=  9.78146195516798E-04
DEBUG_STATS_RL:          Vvel (THERMODYNAMICS) S.D.=  1.27179692477282E-02
DEBUG_STATS_RL:          Wvel (THERMODYNAMICS)  min= -5.51554764368685E-05
DEBUG_STATS_RL:          Wvel (THERMODYNAMICS)  max=  1.26923452198050E-04
DEBUG_STATS_RL:          Wvel (THERMODYNAMICS) mean= -2.27858234469167E-08
DEBUG_STATS_RL:          Wvel (THERMODYNAMICS) S.D.=  8.20499212013719E-06
DEBUG_STATS_RL:         Theta (THERMODYNAMICS)  min= -1.93625979179383E+00
DEBUG_STATS_RL:         Theta (THERMODYNAMICS)  max=  3.11678167844598E+01
DEBUG_STATS_RL:         Theta (THERMODYNAMICS) mean=  3.22091555630394E+00
DEBUG_STATS_RL:         Theta (THERMODYNAMICS) S.D.=  5.88847015876656E+00
DEBUG_STATS_RL:          Salt (THERMODYNAMICS)  min= -3.12250225675825E-17
DEBUG_STATS_RL:          Salt (THERMODYNAMICS)  max=  3.74666050275600E+01
DEBUG_STATS_RL:          Salt (THERMODYNAMICS) mean=  1.88447613770107E+01
DEBUG_STATS_RL:          Salt (THERMODYNAMICS) S.D.=  1.73003156311253E+01
DEBUG_STATS_RL:         GtNm1 (THERMODYNAMICS)  min= -3.51772339014833E-06
DEBUG_STATS_RL:         GtNm1 (THERMODYNAMICS)  max=  1.79907898062132E-06
DEBUG_STATS_RL:         GtNm1 (THERMODYNAMICS) mean= -1.30474138705250E-09
DEBUG_STATS_RL:         GtNm1 (THERMODYNAMICS) S.D.=  1.32626649438777E-07
DEBUG_STATS_RL:         GsNm1 (THERMODYNAMICS)  min= -3.72400573125680E-07
DEBUG_STATS_RL:         GsNm1 (THERMODYNAMICS)  max=  2.21890952010047E-07
DEBUG_STATS_RL:         GsNm1 (THERMODYNAMICS) mean= -1.03082112471784E-10
DEBUG_STATS_RL:         GsNm1 (THERMODYNAMICS) S.D.=  1.30850113505772E-08
DEBUG_STATS_RL:                EtaN (DYNAMICS)  min= -1.85548732380835E+00
DEBUG_STATS_RL:                EtaN (DYNAMICS)  max=  9.01853956921670E-01
DEBUG_STATS_RL:                EtaN (DYNAMICS) mean= -1.89877372623455E-01
DEBUG_STATS_RL:                EtaN (DYNAMICS) S.D.=  7.28701170439325E-01
DEBUG_STATS_RL:                Uvel (DYNAMICS)  min= -1.31337085837678E-01
DEBUG_STATS_RL:                Uvel (DYNAMICS)  max=  1.57734031592687E-01
DEBUG_STATS_RL:                Uvel (DYNAMICS) mean=  6.17939353231641E-03
DEBUG_STATS_RL:                Uvel (DYNAMICS) S.D.=  2.18489244217126E-02
DEBUG_STATS_RL:                Vvel (DYNAMICS)  min= -8.00684977962596E-02
DEBUG_STATS_RL:                Vvel (DYNAMICS)  max=  1.20447376697680E-01
DEBUG_STATS_RL:                Vvel (DYNAMICS) mean=  9.78146195516798E-04
DEBUG_STATS_RL:                Vvel (DYNAMICS) S.D.=  1.27179692477282E-02
DEBUG_STATS_RL:                Wvel (DYNAMICS)  min= -5.51554764368685E-05
DEBUG_STATS_RL:                Wvel (DYNAMICS)  max=  1.26923452198050E-04
DEBUG_STATS_RL:                Wvel (DYNAMICS) mean= -2.27858234469167E-08
DEBUG_STATS_RL:                Wvel (DYNAMICS) S.D.=  8.20499212013719E-06
DEBUG_STATS_RL:               Theta (DYNAMICS)  min= -1.93625979179383E+00
DEBUG_STATS_RL:               Theta (DYNAMICS)  max=  3.11678167844598E+01
DEBUG_STATS_RL:               Theta (DYNAMICS) mean=  3.22091555630394E+00
DEBUG_STATS_RL:               Theta (DYNAMICS) S.D.=  5.88847015876656E+00
DEBUG_STATS_RL:                Salt (DYNAMICS)  min= -3.12250225675825E-17
DEBUG_STATS_RL:                Salt (DYNAMICS)  max=  3.74666050275600E+01
DEBUG_STATS_RL:                Salt (DYNAMICS) mean=  1.88447613770107E+01
DEBUG_STATS_RL:                Salt (DYNAMICS) S.D.=  1.73003156311253E+01
DEBUG_STATS_RL:                  Gu (DYNAMICS)  min= -1.30348439587923E-01
DEBUG_STATS_RL:                  Gu (DYNAMICS)  max=  1.60854292453259E-01
DEBUG_STATS_RL:                  Gu (DYNAMICS) mean=  6.10849496827032E-03
DEBUG_STATS_RL:                  Gu (DYNAMICS) S.D.=  2.22045731661243E-02
DEBUG_STATS_RL:                  Gv (DYNAMICS)  min= -7.84651512075480E-02
DEBUG_STATS_RL:                  Gv (DYNAMICS)  max=  1.20799505372241E-01
DEBUG_STATS_RL:                  Gv (DYNAMICS) mean=  3.62088862926947E-03
DEBUG_STATS_RL:                  Gv (DYNAMICS) S.D.=  1.43451070529589E-02
DEBUG_STATS_RL:               GuNm1 (DYNAMICS)  min= -9.66882629226077E-06
DEBUG_STATS_RL:               GuNm1 (DYNAMICS)  max=  9.19003330947653E-06
DEBUG_STATS_RL:               GuNm1 (DYNAMICS) mean=  1.03624118045721E-08
DEBUG_STATS_RL:               GuNm1 (DYNAMICS) S.D.=  1.22220159158197E-06
DEBUG_STATS_RL:               GvNm1 (DYNAMICS)  min= -9.41157839404330E-06
DEBUG_STATS_RL:               GvNm1 (DYNAMICS)  max=  1.53451554198972E-05
DEBUG_STATS_RL:               GvNm1 (DYNAMICS) mean=  7.38064487722847E-07
DEBUG_STATS_RL:               GvNm1 (DYNAMICS) S.D.=  2.60558704340244E-06
DEBUG_STATS_RL:               GtNm1 (DYNAMICS)  min= -3.51772339014833E-06
DEBUG_STATS_RL:               GtNm1 (DYNAMICS)  max=  1.79907898062132E-06
DEBUG_STATS_RL:               GtNm1 (DYNAMICS) mean= -1.30474138705250E-09
DEBUG_STATS_RL:               GtNm1 (DYNAMICS) S.D.=  1.32626649438777E-07
DEBUG_STATS_RL:               GsNm1 (DYNAMICS)  min= -3.72400573125680E-07
DEBUG_STATS_RL:               GsNm1 (DYNAMICS)  max=  2.21890952010047E-07
DEBUG_STATS_RL:               GsNm1 (DYNAMICS) mean= -1.03082112471784E-10
DEBUG_STATS_RL:               GsNm1 (DYNAMICS) S.D.=  1.30850113505772E-08
DEBUG_STATS_RL:    cg2d_b (SOLVE_FOR_PRESSURE)  min= -2.64839149152285E+04
DEBUG_STATS_RL:    cg2d_b (SOLVE_FOR_PRESSURE)  max=  2.82168757408285E+04
DEBUG_STATS_RL:    cg2d_b (SOLVE_FOR_PRESSURE) mean=  5.47189044028264E+00
DEBUG_STATS_RL:    cg2d_b (SOLVE_FOR_PRESSURE) S.D.=  3.93667304902180E+03
 cg2d: Sum(rhs),rhsMax =   4.48930862707947E-01  1.85335994724623E+00
(PID.TID 0000.0001)  cg2d: iter=     1 ; resid.=  5.18274405598328E-02
(PID.TID 0000.0001)  cg2d: iter=     2 ; resid.=  2.76533108573823E-02
(PID.TID 0000.0001)  cg2d: iter=     3 ; resid.=  1.98642778486150E-02
(PID.TID 0000.0001)  cg2d: iter=     4 ; resid.=  2.05802506087137E-02
(PID.TID 0000.0001)  cg2d: iter=     5 ; resid.=  1.91126701077662E-02
(PID.TID 0000.0001)  cg2d: iter=     6 ; resid.=  1.72191997844372E-02
(PID.TID 0000.0001)  cg2d: iter=     7 ; resid.=  1.54463834088416E-02
(PID.TID 0000.0001)  cg2d: iter=     8 ; resid.=  1.30699084896120E-02
(PID.TID 0000.0001)  cg2d: iter=     9 ; resid.=  1.01653826917236E-02
(PID.TID 0000.0001)  cg2d: iter=    10 ; resid.=  7.69100454407808E-03
(PID.TID 0000.0001)  cg2d: iter=    11 ; resid.=  5.79366442671289E-03
(PID.TID 0000.0001)  cg2d: iter=    12 ; resid.=  4.52667183148855E-03
(PID.TID 0000.0001)  cg2d: iter=    13 ; resid.=  3.56595566800609E-03
(PID.TID 0000.0001)  cg2d: iter=    14 ; resid.=  2.83787874338221E-03
(PID.TID 0000.0001)  cg2d: iter=    15 ; resid.=  2.43447068903597E-03
(PID.TID 0000.0001)  cg2d: iter=    16 ; resid.=  1.95836804568496E-03
(PID.TID 0000.0001)  cg2d: iter=    17 ; resid.=  1.68324715545197E-03
(PID.TID 0000.0001)  cg2d: iter=    18 ; resid.=  1.46954907337513E-03
(PID.TID 0000.0001)  cg2d: iter=    19 ; resid.=  1.36458531134284E-03
(PID.TID 0000.0001)  cg2d: iter=    20 ; resid.=  1.11804846354612E-03
(PID.TID 0000.0001)  cg2d: iter=    21 ; resid.=  8.91606588542655E-04
(PID.TID 0000.0001)  cg2d: iter=    22 ; resid.=  6.98203254724267E-04
(PID.TID 0000.0001)  cg2d: iter=    23 ; resid.=  5.76534707203886E-04
(PID.TID 0000.0001)  cg2d: iter=    24 ; resid.=  5.01473097228569E-04
(PID.TID 0000.0001)  cg2d: iter=    25 ; resid.=  4.64643102822773E-04
(PID.TID 0000.0001)  cg2d: iter=    26 ; resid.=  3.72442900819933E-04
(PID.TID 0000.0001)  cg2d: iter=    27 ; resid.=  3.10320182307651E-04
(PID.TID 0000.0001)  cg2d: iter=    28 ; resid.=  2.52464956091401E-04
(PID.TID 0000.0001)  cg2d: iter=    29 ; resid.=  2.10966961601446E-04
(PID.TID 0000.0001)  cg2d: iter=    30 ; resid.=  1.76713639971131E-04
(PID.TID 0000.0001)  cg2d: iter=    31 ; resid.=  1.37677078788844E-04
(PID.TID 0000.0001)  cg2d: iter=    32 ; resid.=  1.11821707915511E-04
(PID.TID 0000.0001)  cg2d: iter=    33 ; resid.=  9.11314840956749E-05
(PID.TID 0000.0001)  cg2d: iter=    34 ; resid.=  7.36299516976025E-05
(PID.TID 0000.0001)  cg2d: iter=    35 ; resid.=  5.91710462576808E-05
(PID.TID 0000.0001)  cg2d: iter=    36 ; resid.=  4.64500798007800E-05
(PID.TID 0000.0001)  cg2d: iter=    37 ; resid.=  4.00983696495409E-05
(PID.TID 0000.0001)  cg2d: iter=    38 ; resid.=  3.66423745758153E-05
(PID.TID 0000.0001)  cg2d: iter=    39 ; resid.=  3.39644729523211E-05
(PID.TID 0000.0001)  cg2d: iter=    40 ; resid.=  2.84625555923096E-05
(PID.TID 0000.0001)  cg2d: iter=    41 ; resid.=  2.14717386544437E-05
(PID.TID 0000.0001)  cg2d: iter=    42 ; resid.=  1.77104012721681E-05
(PID.TID 0000.0001)  cg2d: iter=    43 ; resid.=  1.53319526610845E-05
(PID.TID 0000.0001)  cg2d: iter=    44 ; resid.=  1.36385390528826E-05
(PID.TID 0000.0001)  cg2d: iter=    45 ; resid.=  1.12858191428908E-05
(PID.TID 0000.0001)  cg2d: iter=    46 ; resid.=  8.95898452154262E-06
(PID.TID 0000.0001)  cg2d: iter=    47 ; resid.=  7.09046161473244E-06
(PID.TID 0000.0001)  cg2d: iter=    48 ; resid.=  6.23021170362399E-06
(PID.TID 0000.0001)  cg2d: iter=    49 ; resid.=  5.55508982113386E-06
(PID.TID 0000.0001)  cg2d: iter=    50 ; resid.=  4.63335047099345E-06
(PID.TID 0000.0001)  cg2d: iter=    51 ; resid.=  3.93696907551125E-06
(PID.TID 0000.0001)  cg2d: iter=    52 ; resid.=  3.29773926397749E-06
(PID.TID 0000.0001)  cg2d: iter=    53 ; resid.=  2.88222774430172E-06
(PID.TID 0000.0001)  cg2d: iter=    54 ; resid.=  2.55612936017159E-06
(PID.TID 0000.0001)  cg2d: iter=    55 ; resid.=  2.12502880153284E-06
(PID.TID 0000.0001)  cg2d: iter=    56 ; resid.=  1.74298615298035E-06
(PID.TID 0000.0001)  cg2d: iter=    57 ; resid.=  1.47515233599607E-06
(PID.TID 0000.0001)  cg2d: iter=    58 ; resid.=  1.29730510660374E-06
(PID.TID 0000.0001)  cg2d: iter=    59 ; resid.=  1.03352408387818E-06
(PID.TID 0000.0001)  cg2d: iter=    60 ; resid.=  7.94480194983833E-07
(PID.TID 0000.0001)  cg2d: iter=    61 ; resid.=  6.27410829682346E-07
(PID.TID 0000.0001)  cg2d: iter=    62 ; resid.=  5.46817895101386E-07
(PID.TID 0000.0001)  cg2d: iter=    63 ; resid.=  4.56160808822560E-07
(PID.TID 0000.0001)  cg2d: iter=    64 ; resid.=  3.42773915588553E-07
(PID.TID 0000.0001)  cg2d: iter=    65 ; resid.=  2.67088957325434E-07
(PID.TID 0000.0001)  cg2d: iter=    66 ; resid.=  2.15436968705899E-07
(PID.TID 0000.0001)  cg2d: iter=    67 ; resid.=  1.74322486424895E-07
(PID.TID 0000.0001)  cg2d: iter=    68 ; resid.=  1.56249565275315E-07
(PID.TID 0000.0001)  cg2d: iter=    69 ; resid.=  1.34521690628721E-07
(PID.TID 0000.0001)  cg2d: iter=    70 ; resid.=  1.06501784435248E-07
(PID.TID 0000.0001)  cg2d: iter=    71 ; resid.=  8.67217114775375E-08
(PID.TID 0000.0001)  cg2d: iter=    72 ; resid.=  7.70633200543221E-08
(PID.TID 0000.0001)  cg2d: iter=    73 ; resid.=  7.24737270014421E-08
(PID.TID 0000.0001)  cg2d: iter=    74 ; resid.=  6.54234073691613E-08
(PID.TID 0000.0001)  cg2d: iter=    75 ; resid.=  5.35540734910467E-08
(PID.TID 0000.0001)  cg2d: iter=    76 ; resid.=  4.31664458488877E-08
(PID.TID 0000.0001)  cg2d: iter=    77 ; resid.=  3.57849085598871E-08
(PID.TID 0000.0001)  cg2d: iter=    78 ; resid.=  3.11941766380003E-08
(PID.TID 0000.0001)  cg2d: iter=    79 ; resid.=  2.46776629195315E-08
(PID.TID 0000.0001)  cg2d: iter=    80 ; resid.=  1.82546602292537E-08
(PID.TID 0000.0001)  cg2d: iter=    81 ; resid.=  1.40722420704771E-08
(PID.TID 0000.0001)  cg2d: iter=    82 ; resid.=  9.80440803712640E-09
(PID.TID 0000.0001)  cg2d: iter=    83 ; resid.=  7.34410915793286E-09
(PID.TID 0000.0001)  cg2d: iter=    84 ; resid.=  5.62605315758909E-09
(PID.TID 0000.0001)  cg2d: iter=    85 ; resid.=  3.95987093784552E-09
(PID.TID 0000.0001)  cg2d: iter=    86 ; resid.=  2.94021271305962E-09
(PID.TID 0000.0001)  cg2d: iter=    87 ; resid.=  2.17679822861318E-09
(PID.TID 0000.0001)  cg2d: iter=    88 ; resid.=  1.49354902854474E-09
(PID.TID 0000.0001)  cg2d: iter=    89 ; resid.=  1.09196734546068E-09
(PID.TID 0000.0001)  cg2d: iter=    90 ; resid.=  8.54214151172572E-10
(PID.TID 0000.0001)  cg2d: iter=    91 ; resid.=  6.67982539931121E-10
(PID.TID 0000.0001)  cg2d: iter=    92 ; resid.=  5.80519971028037E-10
(PID.TID 0000.0001)  cg2d: iter=    93 ; resid.=  4.94418979878957E-10
(PID.TID 0000.0001)  cg2d: iter=    94 ; resid.=  3.89157871592835E-10
(PID.TID 0000.0001)  cg2d: iter=    95 ; resid.=  3.08253739530524E-10
(PID.TID 0000.0001)  cg2d: iter=    96 ; resid.=  2.48727040374325E-10
(PID.TID 0000.0001)  cg2d: iter=    97 ; resid.=  1.85831196738517E-10
(PID.TID 0000.0001)  cg2d: iter=    98 ; resid.=  1.33120987536649E-10
(PID.TID 0000.0001)  cg2d: iter=    99 ; resid.=  8.51167687964367E-11
(PID.TID 0000.0001)  cg2d: iter=   100 ; resid.=  5.90368749740720E-11
(PID.TID 0000.0001)  cg2d: iter=   101 ; resid.=  5.05199333204113E-11
(PID.TID 0000.0001)  cg2d: iter=   102 ; resid.=  4.80684687224530E-11
(PID.TID 0000.0001)  cg2d: iter=   103 ; resid.=  4.05309955438456E-11
(PID.TID 0000.0001)  cg2d: iter=   104 ; resid.=  3.46730980023754E-11
(PID.TID 0000.0001)  cg2d: iter=   105 ; resid.=  2.98324472261495E-11
(PID.TID 0000.0001)  cg2d: iter=   106 ; resid.=  2.45316940149822E-11
(PID.TID 0000.0001)  cg2d: iter=   107 ; resid.=  2.18426500646214E-11
(PID.TID 0000.0001)  cg2d: iter=   108 ; resid.=  1.86702156053699E-11
(PID.TID 0000.0001)  cg2d: iter=   109 ; resid.=  1.46270365927778E-11
(PID.TID 0000.0001)  cg2d: iter=   110 ; resid.=  9.73324885787532E-12
(PID.TID 0000.0001)  cg2d: iter=   111 ; resid.=  6.82888772962367E-12
(PID.TID 0000.0001)  cg2d: iter=   112 ; resid.=  5.11587632194699E-12
(PID.TID 0000.0001)  cg2d: iter=   113 ; resid.=  4.10038936938724E-12
(PID.TID 0000.0001)  cg2d: iter=   114 ; resid.=  3.20449779786172E-12
(PID.TID 0000.0001)  cg2d: iter=   115 ; resid.=  2.59366518867935E-12
(PID.TID 0000.0001)  cg2d: iter=   116 ; resid.=  2.05667301986561E-12
(PID.TID 0000.0001)  cg2d: iter=   117 ; resid.=  1.60823283577444E-12
(PID.TID 0000.0001)  cg2d: iter=   118 ; resid.=  1.28257735608717E-12
(PID.TID 0000.0001)  cg2d: iter=   119 ; resid.=  1.04415443012424E-12
(PID.TID 0000.0001)  cg2d: iter=   120 ; resid.=  8.72124212992322E-13
(PID.TID 0000.0001)  cg2d: iter=   121 ; resid.=  6.53523883518124E-13
(PID.TID 0000.0001)  cg2d: iter=   122 ; resid.=  4.98569128354600E-13
(PID.TID 0000.0001)  cg2d: iter=   123 ; resid.=  3.67939302572262E-13
(PID.TID 0000.0001)  cg2d: iter=   124 ; resid.=  2.65845500625349E-13
(PID.TID 0000.0001)  cg2d: iter=   125 ; resid.=  1.93879984875831E-13
(PID.TID 0000.0001)  cg2d: iter=   126 ; resid.=  1.65001684038684E-13
(PID.TID 0000.0001)  cg2d: iter=   127 ; resid.=  1.28962509091027E-13
(PID.TID 0000.0001)  cg2d: iter=   128 ; resid.=  9.60717240236424E-14
DEBUG_STATS_RL:    cg2d_x (SOLVE_FOR_PRESSURE)  min= -1.81599213688564E+01
DEBUG_STATS_RL:    cg2d_x (SOLVE_FOR_PRESSURE)  max=  8.87533452614405E+00
DEBUG_STATS_RL:    cg2d_x (SOLVE_FOR_PRESSURE) mean= -1.86797431821912E+00
DEBUG_STATS_RL:    cg2d_x (SOLVE_FOR_PRESSURE) S.D.=  7.16992115757149E+00
(PID.TID 0000.0001)      cg2d_init_res =   1.91539546724069E-01
(PID.TID 0000.0001)      cg2d_iters(min,last) =      -1     128
(PID.TID 0000.0001)      cg2d_last_res =   9.60717240236424E-14
(PID.TID 0000.0001) // =======================================================
(PID.TID 0000.0001) // Begin MONITOR dynamic field statistics
(PID.TID 0000.0001) // =======================================================
(PID.TID 0000.0001) %MON time_tsnumber                =                    87
(PID.TID 0000.0001) %MON time_secondsf                =   7.5168000000000E+06
(PID.TID 0000.0001) %MON dynstat_eta_max              =   9.0472319328683E-01
(PID.TID 0000.0001) %MON dynstat_eta_min              =  -1.8511642577835E+00
(PID.TID 0000.0001) %MON dynstat_eta_mean             =  -5.7092391824189E-03
(PID.TID 0000.0001) %MON dynstat_eta_sd               =   6.2848042429328E-01
(PID.TID 0000.0001) %MON dynstat_eta_del2             =   2.4840127549906E-03
(PID.TID 0000.0001) %MON dynstat_uvel_max             =   1.5750138008449E-01
(PID.TID 0000.0001) %MON dynstat_uvel_min             =  -1.3152865958367E-01
(PID.TID 0000.0001) %MON dynstat_uvel_mean            =   2.6926438463726E-03
(PID.TID 0000.0001) %MON dynstat_uvel_sd              =   1.3679028963332E-02
(PID.TID 0000.0001) %MON dynstat_uvel_del2            =   8.3019464007785E-05
(PID.TID 0000.0001) %MON dynstat_vvel_max             =   1.2141377060666E-01
(PID.TID 0000.0001) %MON dynstat_vvel_min             =  -7.9889882235012E-02
(PID.TID 0000.0001) %MON dynstat_vvel_mean            =   3.9465604034162E-07
(PID.TID 0000.0001) %MON dynstat_vvel_sd              =   7.7244576684235E-03
(PID.TID 0000.0001) %MON dynstat_vvel_del2            =   7.1579011247959E-05
(PID.TID 0000.0001) %MON dynstat_wvel_max             =   1.2408765471522E-04
(PID.TID 0000.0001) %MON dynstat_wvel_min             =  -5.4343912609365E-05
(PID.TID 0000.0001) %MON dynstat_wvel_mean            =  -2.1714384893596E-22
(PID.TID 0000.0001) %MON dynstat_wvel_sd              =   9.2120049663093E-06
(PID.TID 0000.0001) %MON dynstat_wvel_del2            =   9.1528944770450E-08
(PID.TID 0000.0001) %MON dynstat_theta_max            =   3.1167816784460E+01
(PID.TID 0000.0001) %MON dynstat_theta_min            =  -1.9362597917938E+00
(PID.TID 0000.0001) %MON dynstat_theta_mean           =   3.6243490224921E+00
(PID.TID 0000.0001) %MON dynstat_theta_sd             =   4.4285426636937E+00
(PID.TID 0000.0001) %MON dynstat_theta_del2           =   4.8308243300873E-03
(PID.TID 0000.0001) %MON dynstat_salt_max             =   3.7466605027560E+01
(PID.TID 0000.0001) %MON dynstat_salt_min             =   2.9935027856660E+01
(PID.TID 0000.0001) %MON dynstat_salt_mean            =   3.4718002078255E+01
(PID.TID 0000.0001) %MON dynstat_salt_sd              =   2.9662976861993E-01
(PID.TID 0000.0001) %MON dynstat_salt_del2            =   9.9758457619700E-04
(PID.TID 0000.0001) %MON dynstat_sst_max              =   3.1167816784460E+01
(PID.TID 0000.0001) %MON dynstat_sst_min              =  -1.9362597917938E+00
(PID.TID 0000.0001) %MON dynstat_sst_mean             =   1.9052431923028E+01
(PID.TID 0000.0001) %MON dynstat_sst_sd               =   9.2298279034440E+00
(PID.TID 0000.0001) %MON dynstat_sst_del2             =   2.9237458969168E-02
(PID.TID 0000.0001) %MON dynstat_sss_max              =   3.7466605027560E+01
(PID.TID 0000.0001) %MON dynstat_sss_min              =   2.9935027856660E+01
(PID.TID 0000.0001) %MON dynstat_sss_mean             =   3.4837052947493E+01
(PID.TID 0000.0001) %MON dynstat_sss_sd               =   9.8940197091289E-01
(PID.TID 0000.0001) %MON dynstat_sss_del2             =   8.2845302603554E-03
(PID.TID 0000.0001) %MON forcing_qnet_max             =   2.2275010782878E+02
(PID.TID 0000.0001) %MON forcing_qnet_min             =  -1.5914763132731E+02
(PID.TID 0000.0001) %MON forcing_qnet_mean            =  -2.8976652714786E+00
(PID.TID 0000.0001) %MON forcing_qnet_sd              =   3.9684988242510E+01
(PID.TID 0000.0001) %MON forcing_qnet_del2            =   7.9160338493799E-01
(PID.TID 0000.0001) %MON forcing_qsw_max              =   0.0000000000000E+00
(PID.TID 0000.0001) %MON forcing_qsw_min              =   0.0000000000000E+00
(PID.TID 0000.0001) %MON forcing_qsw_mean             =   0.0000000000000E+00
(PID.TID 0000.0001) %MON forcing_qsw_sd               =   0.0000000000000E+00
(PID.TID 0000.0001) %MON forcing_qsw_del2             =   0.0000000000000E+00
(PID.TID 0000.0001) %MON forcing_empmr_max            =   6.8050940645511E-05
(PID.TID 0000.0001) %MON forcing_empmr_min            =  -8.3427724462126E-05
(PID.TID 0000.0001) %MON forcing_empmr_mean           =   3.0381204057547E-07
(PID.TID 0000.0001) %MON forcing_empmr_sd             =   2.5679722852412E-05
(PID.TID 0000.0001) %MON forcing_empmr_del2           =   3.6300151295043E-07
(PID.TID 0000.0001) %MON forcing_fu_max               =   3.4985787868500E-01
(PID.TID 0000.0001) %MON forcing_fu_min               =  -3.9882021248341E-01
(PID.TID 0000.0001) %MON forcing_fu_mean              =   1.9057616234127E-02
(PID.TID 0000.0001) %MON forcing_fu_sd                =   1.0030231704399E-01
(PID.TID 0000.0001) %MON forcing_fu_del2              =   7.8085114246442E-04
(PID.TID 0000.0001) %MON forcing_fv_max               =   1.8224433263143E-01
(PID.TID 0000.0001) %MON forcing_fv_min               =  -1.5584678848584E-01
(PID.TID 0000.0001) %MON forcing_fv_mean              =  -7.1283320439412E-03
(PID.TID 0000.0001) %MON forcing_fv_sd                =   3.9251431709163E-02
(PID.TID 0000.0001) %MON forcing_fv_del2              =   4.2751975732847E-04
(PID.TID 0000.0001) %MON trAdv_CFL_u_max              =   4.1245549717494E-02
(PID.TID 0000.0001) %MON trAdv_CFL_v_max              =   2.3362963321846E-02
(PID.TID 0000.0001) %MON trAdv_CFL_w_max              =   2.7605578044736E-02
(PID.TID 0000.0001) %MON advcfl_uvel_max              =   4.1176350938481E-02
(PID.TID 0000.0001) %MON advcfl_vvel_max              =   2.3588748386103E-02
(PID.TID 0000.0001) %MON advcfl_wvel_max              =   2.9705169704561E-02
(PID.TID 0000.0001) %MON advcfl_W_hf_max              =   3.6070563212682E-02
(PID.TID 0000.0001) %MON pe_b_mean                    =   5.0547600887692E-04
(PID.TID 0000.0001) %MON ke_max                       =   1.3432296428102E-02
(PID.TID 0000.0001) %MON ke_mean                      =   1.1509073227823E-04
(PID.TID 0000.0001) %MON ke_vol                       =   1.3226782436723E+18
(PID.TID 0000.0001) %MON vort_r_min                   =  -3.6437543809534E-07
(PID.TID 0000.0001) %MON vort_r_max                   =   3.7112104747588E-07
(PID.TID 0000.0001) %MON vort_a_mean                  =  -2.5274807001088E-05
(PID.TID 0000.0001) %MON vort_a_sd                    =   7.3604723042491E-05
(PID.TID 0000.0001) %MON vort_p_mean                  =  -3.1845655300064E-05
(PID.TID 0000.0001) %MON vort_p_sd                    =   1.3162486442257E-04
(PID.TID 0000.0001) %MON surfExpan_theta_mean         =   1.8344138077188E-07
(PID.TID 0000.0001) %MON surfExpan_salt_mean          =  -8.8300859405305E-09
(PID.TID 0000.0001) // =======================================================
(PID.TID 0000.0001) // End MONITOR dynamic field statistics
(PID.TID 0000.0001) // =======================================================
 EXTERNAL_FIELDS_LOAD,        87 : iP,iLd,i0,i1=    3    4    3    4 ; Wght=  0.6000000000  0.4000000000
 EXTERNAL_FIELDS_LOAD: (fu0,1),fu,fv= -2.7199E-02 -3.7252E-02 -3.1220E-02 -1.4433E-02
 EXTERNAL_FIELDS_LOAD: SST,SSS,Q,E-P= -9.6208E-02  3.4575E+01  1.7088E+02  8.5561E-06
DEBUG_STATS_RL:          Uvel (THERMODYNAMICS)  min= -1.31528659583673E-01
DEBUG_STATS_RL:          Uvel (THERMODYNAMICS)  max=  1.57501380084495E-01
DEBUG_STATS_RL:          Uvel (THERMODYNAMICS) mean=  6.17583969048152E-03
DEBUG_STATS_RL:          Uvel (THERMODYNAMICS) S.D.=  2.18136213891432E-02
DEBUG_STATS_RL:          Vvel (THERMODYNAMICS)  min= -7.98898822350119E-02
DEBUG_STATS_RL:          Vvel (THERMODYNAMICS)  max=  1.21413770606661E-01
DEBUG_STATS_RL:          Vvel (THERMODYNAMICS) mean=  9.52809997645598E-04
DEBUG_STATS_RL:          Vvel (THERMODYNAMICS) S.D.=  1.26687901781714E-02
DEBUG_STATS_RL:          Wvel (THERMODYNAMICS)  min= -5.43439126093650E-05
DEBUG_STATS_RL:          Wvel (THERMODYNAMICS)  max=  1.24087654715217E-04
DEBUG_STATS_RL:          Wvel (THERMODYNAMICS) mean= -2.93126141075297E-08
DEBUG_STATS_RL:          Wvel (THERMODYNAMICS) S.D.=  8.14391497627880E-06
DEBUG_STATS_RL:         Theta (THERMODYNAMICS)  min= -1.93518958640643E+00
DEBUG_STATS_RL:         Theta (THERMODYNAMICS)  max=  3.11843002849400E+01
DEBUG_STATS_RL:         Theta (THERMODYNAMICS) mean=  3.22079320959691E+00
DEBUG_STATS_RL:         Theta (THERMODYNAMICS) S.D.=  5.88860427980653E+00
DEBUG_STATS_RL:          Salt (THERMODYNAMICS)  min= -3.12250225675825E-17
DEBUG_STATS_RL:          Salt (THERMODYNAMICS)  max=  3.74674622321423E+01
DEBUG_STATS_RL:          Salt (THERMODYNAMICS) mean=  1.88447577501984E+01
DEBUG_STATS_RL:          Salt (THERMODYNAMICS) S.D.=  1.73003132276469E+01
DEBUG_STATS_RL:         GtNm1 (THERMODYNAMICS)  min= -3.40518127668830E-06
DEBUG_STATS_RL:         GtNm1 (THERMODYNAMICS)  max=  1.73653076424345E-06
DEBUG_STATS_RL:         GtNm1 (THERMODYNAMICS) mean= -1.49925933220240E-09
DEBUG_STATS_RL:         GtNm1 (THERMODYNAMICS) S.D.=  1.31648662221701E-07
DEBUG_STATS_RL:         GsNm1 (THERMODYNAMICS)  min= -3.80435431715457E-07
DEBUG_STATS_RL:         GsNm1 (THERMODYNAMICS)  max=  2.13309421567460E-07
DEBUG_STATS_RL:         GsNm1 (THERMODYNAMICS) mean= -1.30650941610917E-10
DEBUG_STATS_RL:         GsNm1 (THERMODYNAMICS) S.D.=  1.28967970683127E-08
DEBUG_STATS_RL:                EtaN (DYNAMICS)  min= -1.85116425778354E+00
DEBUG_STATS_RL:                EtaN (DYNAMICS)  max=  9.04723193286829E-01
DEBUG_STATS_RL:                EtaN (DYNAMICS) mean= -1.90415322958116E-01
DEBUG_STATS_RL:                EtaN (DYNAMICS) S.D.=  7.30878813208105E-01
DEBUG_STATS_RL:                Uvel (DYNAMICS)  min= -1.31528659583673E-01
DEBUG_STATS_RL:                Uvel (DYNAMICS)  max=  1.57501380084495E-01
DEBUG_STATS_RL:                Uvel (DYNAMICS) mean=  6.17583969048152E-03
DEBUG_STATS_RL:                Uvel (DYNAMICS) S.D.=  2.18136213891432E-02
DEBUG_STATS_RL:                Vvel (DYNAMICS)  min= -7.98898822350119E-02
DEBUG_STATS_RL:                Vvel (DYNAMICS)  max=  1.21413770606661E-01
DEBUG_STATS_RL:                Vvel (DYNAMICS) mean=  9.52809997645598E-04
DEBUG_STATS_RL:                Vvel (DYNAMICS) S.D.=  1.26687901781714E-02
DEBUG_STATS_RL:                Wvel (DYNAMICS)  min= -5.43439126093650E-05
DEBUG_STATS_RL:                Wvel (DYNAMICS)  max=  1.24087654715217E-04
DEBUG_STATS_RL:                Wvel (DYNAMICS) mean= -2.93126141075297E-08
DEBUG_STATS_RL:                Wvel (DYNAMICS) S.D.=  8.14391497627880E-06
DEBUG_STATS_RL:               Theta (DYNAMICS)  min= -1.93518958640643E+00
DEBUG_STATS_RL:               Theta (DYNAMICS)  max=  3.11843002849400E+01
DEBUG_STATS_RL:               Theta (DYNAMICS) mean=  3.22079320959691E+00
DEBUG_STATS_RL:               Theta (DYNAMICS) S.D.=  5.88860427980653E+00
DEBUG_STATS_RL:                Salt (DYNAMICS)  min= -3.12250225675825E-17
DEBUG_STATS_RL:                Salt (DYNAMICS)  max=  3.74674622321423E+01
DEBUG_STATS_RL:                Salt (DYNAMICS) mean=  1.88447577501984E+01
DEBUG_STATS_RL:                Salt (DYNAMICS) S.D.=  1.73003132276469E+01
DEBUG_STATS_RL:                  Gu (DYNAMICS)  min= -1.30527430348353E-01
DEBUG_STATS_RL:                  Gu (DYNAMICS)  max=  1.58775939652166E-01
DEBUG_STATS_RL:                  Gu (DYNAMICS) mean=  6.11216364631498E-03
DEBUG_STATS_RL:                  Gu (DYNAMICS) S.D.=  2.21826064640317E-02
DEBUG_STATS_RL:                  Gv (DYNAMICS)  min= -7.82637608065092E-02
DEBUG_STATS_RL:                  Gv (DYNAMICS)  max=  1.21727495964564E-01
DEBUG_STATS_RL:                  Gv (DYNAMICS) mean=  3.59903195043193E-03
DEBUG_STATS_RL:                  Gv (DYNAMICS) S.D.=  1.42943911693802E-02
DEBUG_STATS_RL:               GuNm1 (DYNAMICS)  min= -9.62960117286733E-06
DEBUG_STATS_RL:               GuNm1 (DYNAMICS)  max=  9.33721168634320E-06
DEBUG_STATS_RL:               GuNm1 (DYNAMICS) mean=  1.07795792264482E-08
DEBUG_STATS_RL:               GuNm1 (DYNAMICS) S.D.=  1.22275232679602E-06
DEBUG_STATS_RL:               GvNm1 (DYNAMICS)  min= -9.38852628578002E-06
DEBUG_STATS_RL:               GvNm1 (DYNAMICS)  max=  1.53067046203025E-05
DEBUG_STATS_RL:               GvNm1 (DYNAMICS) mean=  7.38158680707047E-07
DEBUG_STATS_RL:               GvNm1 (DYNAMICS) S.D.=  2.60468608617314E-06
DEBUG_STATS_RL:               GtNm1 (DYNAMICS)  min= -3.40518127668830E-06
DEBUG_STATS_RL:               GtNm1 (DYNAMICS)  max=  1.73653076424345E-06
DEBUG_STATS_RL:               GtNm1 (DYNAMICS) mean= -1.49925933220240E-09
DEBUG_STATS_RL:               GtNm1 (DYNAMICS) S.D.=  1.31648662221701E-07
DEBUG_STATS_RL:               GsNm1 (DYNAMICS)  min= -3.80435431715457E-07
DEBUG_STATS_RL:               GsNm1 (DYNAMICS)  max=  2.13309421567460E-07
DEBUG_STATS_RL:               GsNm1 (DYNAMICS) mean= -1.30650941610917E-10
DEBUG_STATS_RL:               GsNm1 (DYNAMICS) S.D.=  1.28967970683127E-08
DEBUG_STATS_RL:    cg2d_b (SOLVE_FOR_PRESSURE)  min= -2.66088449867907E+04
DEBUG_STATS_RL:    cg2d_b (SOLVE_FOR_PRESSURE)  max=  2.84025350563471E+04
DEBUG_STATS_RL:    cg2d_b (SOLVE_FOR_PRESSURE) mean=  5.49440198038460E+00
DEBUG_STATS_RL:    cg2d_b (SOLVE_FOR_PRESSURE) S.D.=  3.94267480397209E+03
 cg2d: Sum(rhs),rhsMax =   4.47831172793461E-01  1.86555454817851E+00
(PID.TID 0000.0001)  cg2d: iter=     1 ; resid.=  5.09295768911867E-02
(PID.TID 0000.0001)  cg2d: iter=     2 ; resid.=  2.75808098144099E-02
(PID.TID 0000.0001)  cg2d: iter=     3 ; resid.=  2.04872105940763E-02
(PID.TID 0000.0001)  cg2d: iter=     4 ; resid.=  2.19440119309564E-02
(PID.TID 0000.0001)  cg2d: iter=     5 ; resid.=  2.04262723126681E-02
(PID.TID 0000.0001)  cg2d: iter=     6 ; resid.=  1.85315937964493E-02
(PID.TID 0000.0001)  cg2d: iter=     7 ; resid.=  1.63273498312400E-02
(PID.TID 0000.0001)  cg2d: iter=     8 ; resid.=  1.35505671692416E-02
(PID.TID 0000.0001)  cg2d: iter=     9 ; resid.=  1.05464591378541E-02
(PID.TID 0000.0001)  cg2d: iter=    10 ; resid.=  7.91251285426519E-03
(PID.TID 0000.0001)  cg2d: iter=    11 ; resid.=  5.94450318712563E-03
(PID.TID 0000.0001)  cg2d: iter=    12 ; resid.=  4.66531016104164E-03
(PID.TID 0000.0001)  cg2d: iter=    13 ; resid.=  3.72766827107400E-03
(PID.TID 0000.0001)  cg2d: iter=    14 ; resid.=  3.04379969006694E-03
(PID.TID 0000.0001)  cg2d: iter=    15 ; resid.=  2.64430656783290E-03
(PID.TID 0000.0001)  cg2d: iter=    16 ; resid.=  2.15331011486671E-03
(PID.TID 0000.0001)  cg2d: iter=    17 ; resid.=  1.86977694348396E-03
(PID.TID 0000.0001)  cg2d: iter=    18 ; resid.=  1.62728745567531E-03
(PID.TID 0000.0001)  cg2d: iter=    19 ; resid.=  1.48110732861004E-03
(PID.TID 0000.0001)  cg2d: iter=    20 ; resid.=  1.19793105874210E-03
(PID.TID 0000.0001)  cg2d: iter=    21 ; resid.=  9.53567793163843E-04
(PID.TID 0000.0001)  cg2d: iter=    22 ; resid.=  7.42483937346666E-04
(PID.TID 0000.0001)  cg2d: iter=    23 ; resid.=  6.08762953552384E-04
(PID.TID 0000.0001)  cg2d: iter=    24 ; resid.=  5.35340866504222E-04
(PID.TID 0000.0001)  cg2d: iter=    25 ; resid.=  4.99128027382477E-04
(PID.TID 0000.0001)  cg2d: iter=    26 ; resid.=  3.97774867048527E-04
(PID.TID 0000.0001)  cg2d: iter=    27 ; resid.=  3.28812420640378E-04
(PID.TID 0000.0001)  cg2d: iter=    28 ; resid.=  2.65315365085287E-04
(PID.TID 0000.0001)  cg2d: iter=    29 ; resid.=  2.18515037756929E-04
(PID.TID 0000.0001)  cg2d: iter=    30 ; resid.=  1.80503843050101E-04
(PID.TID 0000.0001)  cg2d: iter=    31 ; resid.=  1.38591525579136E-04
(PID.TID 0000.0001)  cg2d: iter=    32 ; resid.=  1.12291818939567E-04
(PID.TID 0000.0001)  cg2d: iter=    33 ; resid.=  8.98038516102354E-05
(PID.TID 0000.0001)  cg2d: iter=    34 ; resid.=  7.23626385944757E-05
(PID.TID 0000.0001)  cg2d: iter=    35 ; resid.=  5.80979784774852E-05
(PID.TID 0000.0001)  cg2d: iter=    36 ; resid.=  4.53548308095925E-05
(PID.TID 0000.0001)  cg2d: iter=    37 ; resid.=  3.84600376351536E-05
(PID.TID 0000.0001)  cg2d: iter=    38 ; resid.=  3.45332050766590E-05
(PID.TID 0000.0001)  cg2d: iter=    39 ; resid.=  3.16741247205694E-05
(PID.TID 0000.0001)  cg2d: iter=    40 ; resid.=  2.60804201898371E-05
(PID.TID 0000.0001)  cg2d: iter=    41 ; resid.=  1.94602223236305E-05
(PID.TID 0000.0001)  cg2d: iter=    42 ; resid.=  1.56504688209966E-05
(PID.TID 0000.0001)  cg2d: iter=    43 ; resid.=  1.34434750947897E-05
(PID.TID 0000.0001)  cg2d: iter=    44 ; resid.=  1.18651762070329E-05
(PID.TID 0000.0001)  cg2d: iter=    45 ; resid.=  9.76899937690865E-06
(PID.TID 0000.0001)  cg2d: iter=    46 ; resid.=  7.74266098154906E-06
(PID.TID 0000.0001)  cg2d: iter=    47 ; resid.=  6.08802924302720E-06
(PID.TID 0000.0001)  cg2d: iter=    48 ; resid.=  5.32697389873189E-06
(PID.TID 0000.0001)  cg2d: iter=    49 ; resid.=  4.67566199431937E-06
(PID.TID 0000.0001)  cg2d: iter=    50 ; resid.=  3.84189848748116E-06
(PID.TID 0000.0001)  cg2d: iter=    51 ; resid.=  3.19496737235435E-06
(PID.TID 0000.0001)  cg2d: iter=    52 ; resid.=  2.61664083839590E-06
(PID.TID 0000.0001)  cg2d: iter=    53 ; resid.=  2.28340077581411E-06
(PID.TID 0000.0001)  cg2d: iter=    54 ; resid.=  2.08405921937593E-06
(PID.TID 0000.0001)  cg2d: iter=    55 ; resid.=  1.79667671252511E-06
(PID.TID 0000.0001)  cg2d: iter=    56 ; resid.=  1.51185080987918E-06
(PID.TID 0000.0001)  cg2d: iter=    57 ; resid.=  1.31285588213236E-06
(PID.TID 0000.0001)  cg2d: iter=    58 ; resid.=  1.17677332353523E-06
(PID.TID 0000.0001)  cg2d: iter=    59 ; resid.=  9.47570213096472E-07
(PID.TID 0000.0001)  cg2d: iter=    60 ; resid.=  7.30925502832926E-07
(PID.TID 0000.0001)  cg2d: iter=    61 ; resid.=  5.73772026230307E-07
(PID.TID 0000.0001)  cg2d: iter=    62 ; resid.=  4.97892525745985E-07
(PID.TID 0000.0001)  cg2d: iter=    63 ; resid.=  4.20879985006857E-07
(PID.TID 0000.0001)  cg2d: iter=    64 ; resid.=  3.26094466419849E-07
(PID.TID 0000.0001)  cg2d: iter=    65 ; resid.=  2.60421973189469E-07
(PID.TID 0000.0001)  cg2d: iter=    66 ; resid.=  2.13505770438637E-07
(PID.TID 0000.0001)  cg2d: iter=    67 ; resid.=  1.74645198462707E-07
(PID.TID 0000.0001)  cg2d: iter=    68 ; resid.=  1.57210629262367E-07
(PID.TID 0000.0001)  cg2d: iter=    69 ; resid.=  1.34795890757915E-07
(PID.TID 0000.0001)  cg2d: iter=    70 ; resid.=  1.05436163955546E-07
(PID.TID 0000.0001)  cg2d: iter=    71 ; resid.=  8.62958561614523E-08
(PID.TID 0000.0001)  cg2d: iter=    72 ; resid.=  7.67161118988352E-08
(PID.TID 0000.0001)  cg2d: iter=    73 ; resid.=  7.32577683570664E-08
(PID.TID 0000.0001)  cg2d: iter=    74 ; resid.=  6.69224782241788E-08
(PID.TID 0000.0001)  cg2d: iter=    75 ; resid.=  5.56478798000106E-08
(PID.TID 0000.0001)  cg2d: iter=    76 ; resid.=  4.49561174363691E-08
(PID.TID 0000.0001)  cg2d: iter=    77 ; resid.=  3.70517343478564E-08
(PID.TID 0000.0001)  cg2d: iter=    78 ; resid.=  3.21490097063334E-08
(PID.TID 0000.0001)  cg2d: iter=    79 ; resid.=  2.52524917628159E-08
(PID.TID 0000.0001)  cg2d: iter=    80 ; resid.=  1.80824656997145E-08
(PID.TID 0000.0001)  cg2d: iter=    81 ; resid.=  1.36547285437029E-08
(PID.TID 0000.0001)  cg2d: iter=    82 ; resid.=  9.48090197117549E-09
(PID.TID 0000.0001)  cg2d: iter=    83 ; resid.=  7.13548891047735E-09
(PID.TID 0000.0001)  cg2d: iter=    84 ; resid.=  5.46872206485489E-09
(PID.TID 0000.0001)  cg2d: iter=    85 ; resid.=  3.88364174442224E-09
(PID.TID 0000.0001)  cg2d: iter=    86 ; resid.=  2.88137628661350E-09
(PID.TID 0000.0001)  cg2d: iter=    87 ; resid.=  2.15009578720577E-09
(PID.TID 0000.0001)  cg2d: iter=    88 ; resid.=  1.48365694187220E-09
(PID.TID 0000.0001)  cg2d: iter=    89 ; resid.=  1.09857371167868E-09
(PID.TID 0000.0001)  cg2d: iter=    90 ; resid.=  8.65847435459790E-10
(PID.TID 0000.0001)  cg2d: iter=    91 ; resid.=  6.74223624341090E-10
(PID.TID 0000.0001)  cg2d: iter=    92 ; resid.=  5.82999424904368E-10
(PID.TID 0000.0001)  cg2d: iter=    93 ; resid.=  4.90523560577086E-10
(PID.TID 0000.0001)  cg2d: iter=    94 ; resid.=  3.85039207999469E-10
(PID.TID 0000.0001)  cg2d: iter=    95 ; resid.=  2.96603891373296E-10
(PID.TID 0000.0001)  cg2d: iter=    96 ; resid.=  2.36387158057470E-10
(PID.TID 0000.0001)  cg2d: iter=    97 ; resid.=  1.76530642624222E-10
(PID.TID 0000.0001)  cg2d: iter=    98 ; resid.=  1.26284555315228E-10
(PID.TID 0000.0001)  cg2d: iter=    99 ; resid.=  8.06773585486941E-11
(PID.TID 0000.0001)  cg2d: iter=   100 ; resid.=  5.54765239456848E-11
(PID.TID 0000.0001)  cg2d: iter=   101 ; resid.=  4.66740287105528E-11
(PID.TID 0000.0001)  cg2d: iter=   102 ; resid.=  4.36772029504008E-11
(PID.TID 0000.0001)  cg2d: iter=   103 ; resid.=  3.71808511737122E-11
(PID.TID 0000.0001)  cg2d: iter=   104 ; resid.=  3.23785412270390E-11
(PID.TID 0000.0001)  cg2d: iter=   105 ; resid.=  2.81114646327375E-11
(PID.TID 0000.0001)  cg2d: iter=   106 ; resid.=  2.30371320798000E-11
(PID.TID 0000.0001)  cg2d: iter=   107 ; resid.=  2.03825025538156E-11
(PID.TID 0000.0001)  cg2d: iter=   108 ; resid.=  1.74144157819417E-11
(PID.TID 0000.0001)  cg2d: iter=   109 ; resid.=  1.37610958529900E-11
(PID.TID 0000.0001)  cg2d: iter=   110 ; resid.=  9.18331224174068E-12
(PID.TID 0000.0001)  cg2d: iter=   111 ; resid.=  6.34860005694916E-12
(PID.TID 0000.0001)  cg2d: iter=   112 ; resid.=  4.71689938058170E-12
(PID.TID 0000.0001)  cg2d: iter=   113 ; resid.=  3.78552974591893E-12
(PID.TID 0000.0001)  cg2d: iter=   114 ; resid.=  3.00761400683588E-12
(PID.TID 0000.0001)  cg2d: iter=   115 ; resid.=  2.49973770072149E-12
(PID.TID 0000.0001)  cg2d: iter=   116 ; resid.=  1.98012675022976E-12
(PID.TID 0000.0001)  cg2d: iter=   117 ; resid.=  1.54207217691046E-12
(PID.TID 0000.0001)  cg2d: iter=   118 ; resid.=  1.25484603099736E-12
(PID.TID 0000.0001)  cg2d: iter=   119 ; resid.=  1.02209093961398E-12
(PID.TID 0000.0001)  cg2d: iter=   120 ; resid.=  8.29074932028138E-13
(PID.TID 0000.0001)  cg2d: iter=   121 ; resid.=  6.07804372280828E-13
(PID.TID 0000.0001)  cg2d: iter=   122 ; resid.=  4.56202406610006E-13
(PID.TID 0000.0001)  cg2d: iter=   123 ; resid.=  3.31822241216026E-13
(PID.TID 0000.0001)  cg2d: iter=   124 ; resid.=  2.39092411939734E-13
(PID.TID 0000.0001)  cg2d: iter=   125 ; resid.=  1.74536986972202E-13
(PID.TID 0000.0001)  cg2d: iter=   126 ; resid.=  1.49014963503635E-13
(PID.TID 0000.0001)  cg2d: iter=   127 ; resid.=  1.16375390310147E-13
(PID.TID 0000.0001)  cg2d: iter=   128 ; resid.=  8.82515039865881E-14
DEBUG_STATS_RL:    cg2d_x (SOLVE_FOR_PRESSURE)  min= -1.81187981681904E+01
DEBUG_STATS_RL:    cg2d_x (SOLVE_FOR_PRESSURE)  max=  8.90651640324414E+00
DEBUG_STATS_RL:    cg2d_x (SOLVE_FOR_PRESSURE) mean= -1.87329171969593E+00
DEBUG_STATS_RL:    cg2d_x (SOLVE_FOR_PRESSURE) S.D.=  7.19203378081534E+00
(PID.TID 0000.0001)      cg2d_init_res =   1.89729043363087E-01
(PID.TID 0000.0001)      cg2d_iters(min,last) =      -1     128
(PID.TID 0000.0001)      cg2d_last_res =   8.82515039865881E-14
(PID.TID 0000.0001) // =======================================================
(PID.TID 0000.0001) // Begin MONITOR dynamic field statistics
(PID.TID 0000.0001) // =======================================================
(PID.TID 0000.0001) %MON time_tsnumber                =                    88
(PID.TID 0000.0001) %MON time_secondsf                =   7.6032000000000E+06
(PID.TID 0000.0001) %MON dynstat_eta_max              =   9.0790177403098E-01
(PID.TID 0000.0001) %MON dynstat_eta_min              =  -1.8469722903355E+00
(PID.TID 0000.0001) %MON dynstat_eta_mean             =  -5.7327271831774E-03
(PID.TID 0000.0001) %MON dynstat_eta_sd               =   6.3081767719593E-01
(PID.TID 0000.0001) %MON dynstat_eta_del2             =   2.4878250162920E-03
(PID.TID 0000.0001) %MON dynstat_uvel_max             =   1.5680804144831E-01
(PID.TID 0000.0001) %MON dynstat_uvel_min             =  -1.3160619236167E-01
(PID.TID 0000.0001) %MON dynstat_uvel_mean            =   2.7017755727787E-03
(PID.TID 0000.0001) %MON dynstat_uvel_sd              =   1.3663694722346E-02
(PID.TID 0000.0001) %MON dynstat_uvel_del2            =   8.2998221714494E-05
(PID.TID 0000.0001) %MON dynstat_vvel_max             =   1.2214948690422E-01
(PID.TID 0000.0001) %MON dynstat_vvel_min             =  -7.9527798446475E-02
(PID.TID 0000.0001) %MON dynstat_vvel_mean            =   6.1156016407262E-07
(PID.TID 0000.0001) %MON dynstat_vvel_sd              =   7.6981450674634E-03
(PID.TID 0000.0001) %MON dynstat_vvel_del2            =   7.1775451917545E-05
(PID.TID 0000.0001) %MON dynstat_wvel_max             =   1.2215756143337E-04
(PID.TID 0000.0001) %MON dynstat_wvel_min             =  -5.3821760503829E-05
(PID.TID 0000.0001) %MON dynstat_wvel_mean            =   3.8247318907860E-23
(PID.TID 0000.0001) %MON dynstat_wvel_sd              =   9.1517076373466E-06
(PID.TID 0000.0001) %MON dynstat_wvel_del2            =   9.0769411930181E-08
(PID.TID 0000.0001) %MON dynstat_theta_max            =   3.1184300284940E+01
(PID.TID 0000.0001) %MON dynstat_theta_min            =  -1.9351895864064E+00
(PID.TID 0000.0001) %MON dynstat_theta_mean           =   3.6243579331893E+00
(PID.TID 0000.0001) %MON dynstat_theta_sd             =   4.4286216546310E+00
(PID.TID 0000.0001) %MON dynstat_theta_del2           =   4.8280852273403E-03
(PID.TID 0000.0001) %MON dynstat_salt_max             =   3.7467462232142E+01
(PID.TID 0000.0001) %MON dynstat_salt_min             =   2.9937830239857E+01
(PID.TID 0000.0001) %MON dynstat_salt_mean            =   3.4718002791501E+01
(PID.TID 0000.0001) %MON dynstat_salt_sd              =   2.9663862329443E-01
(PID.TID 0000.0001) %MON dynstat_salt_del2            =   9.9811429035781E-04
(PID.TID 0000.0001) %MON dynstat_sst_max              =   3.1184300284940E+01
(PID.TID 0000.0001) %MON dynstat_sst_min              =  -1.9351895864064E+00
(PID.TID 0000.0001) %MON dynstat_sst_mean             =   1.9050584489201E+01
(PID.TID 0000.0001) %MON dynstat_sst_sd               =   9.2372607674081E+00
(PID.TID 0000.0001) %MON dynstat_sst_del2             =   2.9277352376441E-02
(PID.TID 0000.0001) %MON dynstat_sss_max              =   3.7467462232142E+01
(PID.TID 0000.0001) %MON dynstat_sss_min              =   2.9937830239857E+01
(PID.TID 0000.0001) %MON dynstat_sss_mean             =   3.4836934306906E+01
(PID.TID 0000.0001) %MON dynstat_sss_sd               =   9.8983194403229E-01
(PID.TID 0000.0001) %MON dynstat_sss_del2             =   8.2968707250660E-03
(PID.TID 0000.0001) %MON forcing_qnet_max             =   2.1804487304688E+02
(PID.TID 0000.0001) %MON forcing_qnet_min             =  -1.5871963500977E+02
(PID.TID 0000.0001) %MON forcing_qnet_mean            =  -2.5006288425090E+00
(PID.TID 0000.0001) %MON forcing_qnet_sd              =   3.9492057446070E+01
(PID.TID 0000.0001) %MON forcing_qnet_del2            =   7.8895928517454E-01
(PID.TID 0000.0001) %MON forcing_qsw_max              =   0.0000000000000E+00
(PID.TID 0000.0001) %MON forcing_qsw_min              =   0.0000000000000E+00
(PID.TID 0000.0001) %MON forcing_qsw_mean             =   0.0000000000000E+00
(PID.TID 0000.0001) %MON forcing_qsw_sd               =   0.0000000000000E+00
(PID.TID 0000.0001) %MON forcing_qsw_del2             =   0.0000000000000E+00
(PID.TID 0000.0001) %MON forcing_empmr_max            =   6.7954769633616E-05
(PID.TID 0000.0001) %MON forcing_empmr_min            =  -8.3442570542047E-05
(PID.TID 0000.0001) %MON forcing_empmr_mean           =   2.8136667574790E-07
(PID.TID 0000.0001) %MON forcing_empmr_sd             =   2.5645681839636E-05
(PID.TID 0000.0001) %MON forcing_empmr_del2           =   3.6313018392051E-07
(PID.TID 0000.0001) %MON forcing_fu_max               =   3.4936582446098E-01
(PID.TID 0000.0001) %MON forcing_fu_min               =  -3.9975328445435E-01
(PID.TID 0000.0001) %MON forcing_fu_mean              =   1.8930424137194E-02
(PID.TID 0000.0001) %MON forcing_fu_sd                =   1.0027877528737E-01
(PID.TID 0000.0001) %MON forcing_fu_del2              =   7.7872447127255E-04
(PID.TID 0000.0001) %MON forcing_fv_max               =   1.8214833140373E-01
(PID.TID 0000.0001) %MON forcing_fv_min               =  -1.5243907570839E-01
(PID.TID 0000.0001) %MON forcing_fv_mean              =  -7.0918553715682E-03
(PID.TID 0000.0001) %MON forcing_fv_sd                =   3.9087205962164E-02
(PID.TID 0000.0001) %MON forcing_fv_del2              =   4.2370613844542E-04
(PID.TID 0000.0001) %MON trAdv_CFL_u_max              =   4.1184714149855E-02
(PID.TID 0000.0001) %MON trAdv_CFL_v_max              =   2.3550413028672E-02
(PID.TID 0000.0001) %MON trAdv_CFL_w_max              =   2.7162417699421E-02
(PID.TID 0000.0001) %MON advcfl_uvel_max              =   4.0995088050578E-02
(PID.TID 0000.0001) %MON advcfl_vvel_max              =   2.3731686263248E-02
(PID.TID 0000.0001) %MON advcfl_wvel_max              =   2.8909276608632E-02
(PID.TID 0000.0001) %MON advcfl_W_hf_max              =   3.5104121596196E-02
(PID.TID 0000.0001) %MON pe_b_mean                    =   5.0924265751157E-04
(PID.TID 0000.0001) %MON ke_max                       =   1.3517602772971E-02
(PID.TID 0000.0001) %MON ke_mean                      =   1.1474044153687E-04
(PID.TID 0000.0001) %MON ke_vol                       =   1.3226782436723E+18
(PID.TID 0000.0001) %MON vort_r_min                   =  -3.6052400232509E-07
(PID.TID 0000.0001) %MON vort_r_max                   =   3.6888929482939E-07
(PID.TID 0000.0001) %MON vort_a_mean                  =  -2.5274807001183E-05
(PID.TID 0000.0001) %MON vort_a_sd                    =   7.3604724065737E-05
(PID.TID 0000.0001) %MON vort_p_mean                  =  -3.1845655300184E-05
(PID.TID 0000.0001) %MON vort_p_sd                    =   1.3162489005610E-04
(PID.TID 0000.0001) %MON surfExpan_theta_mean         =   1.7972151802721E-07
(PID.TID 0000.0001) %MON surfExpan_salt_mean          =  -1.0205549325296E-08
(PID.TID 0000.0001) // =======================================================
(PID.TID 0000.0001) // End MONITOR dynamic field statistics
(PID.TID 0000.0001) // =======================================================
 EXTERNAL_FIELDS_LOAD,        88 : iP,iLd,i0,i1=    3    4    3    4 ; Wght=  0.5666666667  0.4333333333
 EXTERNAL_FIELDS_LOAD: (fu0,1),fu,fv= -2.7199E-02 -3.7252E-02 -3.1555E-02 -1.5588E-02
 EXTERNAL_FIELDS_LOAD: SST,SSS,Q,E-P= -8.8900E-02  3.4575E+01  1.6717E+02  8.5124E-06
DEBUG_STATS_RL:          Uvel (THERMODYNAMICS)  min= -1.31606192361673E-01
DEBUG_STATS_RL:          Uvel (THERMODYNAMICS)  max=  1.56808041448308E-01
DEBUG_STATS_RL:          Uvel (THERMODYNAMICS) mean=  6.17497219260969E-03
DEBUG_STATS_RL:          Uvel (THERMODYNAMICS) S.D.=  2.17906480862626E-02
DEBUG_STATS_RL:          Vvel (THERMODYNAMICS)  min= -7.95277984464746E-02
DEBUG_STATS_RL:          Vvel (THERMODYNAMICS)  max=  1.22149486904220E-01
DEBUG_STATS_RL:          Vvel (THERMODYNAMICS) mean=  9.27253012353032E-04
DEBUG_STATS_RL:          Vvel (THERMODYNAMICS) S.D.=  1.26256770189242E-02
DEBUG_STATS_RL:          Wvel (THERMODYNAMICS)  min= -5.38217605038287E-05
DEBUG_STATS_RL:          Wvel (THERMODYNAMICS)  max=  1.22157561433366E-04
DEBUG_STATS_RL:          Wvel (THERMODYNAMICS) mean= -3.51669890238730E-08
DEBUG_STATS_RL:          Wvel (THERMODYNAMICS) S.D.=  8.09012049535751E-06
DEBUG_STATS_RL:         Theta (THERMODYNAMICS)  min= -1.93411270306009E+00
DEBUG_STATS_RL:         Theta (THERMODYNAMICS)  max=  3.12000175507282E+01
DEBUG_STATS_RL:         Theta (THERMODYNAMICS) mean=  3.22066154711551E+00
DEBUG_STATS_RL:         Theta (THERMODYNAMICS) S.D.=  5.88871072827582E+00
DEBUG_STATS_RL:          Salt (THERMODYNAMICS)  min= -3.12250225675825E-17
DEBUG_STATS_RL:          Salt (THERMODYNAMICS)  max=  3.74683237769899E+01
DEBUG_STATS_RL:          Salt (THERMODYNAMICS) mean=  1.88447530838416E+01
DEBUG_STATS_RL:          Salt (THERMODYNAMICS) S.D.=  1.73003098776479E+01
DEBUG_STATS_RL:         GtNm1 (THERMODYNAMICS)  min= -3.34495249912377E-06
DEBUG_STATS_RL:         GtNm1 (THERMODYNAMICS)  max=  1.80572543598689E-06
DEBUG_STATS_RL:         GtNm1 (THERMODYNAMICS) mean= -1.68333646822123E-09
DEBUG_STATS_RL:         GtNm1 (THERMODYNAMICS) S.D.=  1.30579847460698E-07
DEBUG_STATS_RL:         GsNm1 (THERMODYNAMICS)  min= -3.84945194840082E-07
DEBUG_STATS_RL:         GsNm1 (THERMODYNAMICS)  max=  2.15617718547208E-07
DEBUG_STATS_RL:         GsNm1 (THERMODYNAMICS) mean= -1.53914961090553E-10
DEBUG_STATS_RL:         GsNm1 (THERMODYNAMICS) S.D.=  1.28702914758912E-08
DEBUG_STATS_RL:                EtaN (DYNAMICS)  min= -1.84697229033550E+00
DEBUG_STATS_RL:                EtaN (DYNAMICS)  max=  9.07901774030977E-01
DEBUG_STATS_RL:                EtaN (DYNAMICS) mean= -1.90957361844642E-01
DEBUG_STATS_RL:                EtaN (DYNAMICS) S.D.=  7.33132903243158E-01
DEBUG_STATS_RL:                Uvel (DYNAMICS)  min= -1.31606192361673E-01
DEBUG_STATS_RL:                Uvel (DYNAMICS)  max=  1.56808041448308E-01
DEBUG_STATS_RL:                Uvel (DYNAMICS) mean=  6.17497219260969E-03
DEBUG_STATS_RL:                Uvel (DYNAMICS) S.D.=  2.17906480862626E-02
DEBUG_STATS_RL:                Vvel (DYNAMICS)  min= -7.95277984464746E-02
DEBUG_STATS_RL:                Vvel (DYNAMICS)  max=  1.22149486904220E-01
DEBUG_STATS_RL:                Vvel (DYNAMICS) mean=  9.27253012353032E-04
DEBUG_STATS_RL:                Vvel (DYNAMICS) S.D.=  1.26256770189242E-02
DEBUG_STATS_RL:                Wvel (DYNAMICS)  min= -5.38217605038287E-05
DEBUG_STATS_RL:                Wvel (DYNAMICS)  max=  1.22157561433366E-04
DEBUG_STATS_RL:                Wvel (DYNAMICS) mean= -3.51669890238730E-08
DEBUG_STATS_RL:                Wvel (DYNAMICS) S.D.=  8.09012049535751E-06
DEBUG_STATS_RL:               Theta (DYNAMICS)  min= -1.93411270306009E+00
DEBUG_STATS_RL:               Theta (DYNAMICS)  max=  3.12000175507282E+01
DEBUG_STATS_RL:               Theta (DYNAMICS) mean=  3.22066154711551E+00
DEBUG_STATS_RL:               Theta (DYNAMICS) S.D.=  5.88871072827582E+00
DEBUG_STATS_RL:                Salt (DYNAMICS)  min= -3.12250225675825E-17
DEBUG_STATS_RL:                Salt (DYNAMICS)  max=  3.74683237769899E+01
DEBUG_STATS_RL:                Salt (DYNAMICS) mean=  1.88447530838416E+01
DEBUG_STATS_RL:                Salt (DYNAMICS) S.D.=  1.73003098776479E+01
DEBUG_STATS_RL:                  Gu (DYNAMICS)  min= -1.30594180573161E-01
DEBUG_STATS_RL:                  Gu (DYNAMICS)  max=  1.55960549280030E-01
DEBUG_STATS_RL:                  Gu (DYNAMICS) mean=  6.11850088837508E-03
DEBUG_STATS_RL:                  Gu (DYNAMICS) S.D.=  2.21748282252381E-02
DEBUG_STATS_RL:                  Gv (DYNAMICS)  min= -7.78797068086427E-02
DEBUG_STATS_RL:                  Gv (DYNAMICS)  max=  1.22424287947041E-01
DEBUG_STATS_RL:                  Gv (DYNAMICS) mean=  3.57756658173378E-03
DEBUG_STATS_RL:                  Gv (DYNAMICS) S.D.=  1.42469950398850E-02
DEBUG_STATS_RL:               GuNm1 (DYNAMICS)  min= -9.59077930912024E-06
DEBUG_STATS_RL:               GuNm1 (DYNAMICS)  max=  9.47974222648016E-06
DEBUG_STATS_RL:               GuNm1 (DYNAMICS) mean=  1.12180864748474E-08
DEBUG_STATS_RL:               GuNm1 (DYNAMICS) S.D.=  1.22333869465377E-06
DEBUG_STATS_RL:               GvNm1 (DYNAMICS)  min= -9.36955851198662E-06
DEBUG_STATS_RL:               GvNm1 (DYNAMICS)  max=  1.52678776921382E-05
DEBUG_STATS_RL:               GvNm1 (DYNAMICS) mean=  7.38255988804102E-07
DEBUG_STATS_RL:               GvNm1 (DYNAMICS) S.D.=  2.60381686905714E-06
DEBUG_STATS_RL:               GtNm1 (DYNAMICS)  min= -3.34495249912377E-06
DEBUG_STATS_RL:               GtNm1 (DYNAMICS)  max=  1.80572543598689E-06
DEBUG_STATS_RL:               GtNm1 (DYNAMICS) mean= -1.68333646822123E-09
DEBUG_STATS_RL:               GtNm1 (DYNAMICS) S.D.=  1.30579847460698E-07
DEBUG_STATS_RL:               GsNm1 (DYNAMICS)  min= -3.84945194840082E-07
DEBUG_STATS_RL:               GsNm1 (DYNAMICS)  max=  2.15617718547208E-07
DEBUG_STATS_RL:               GsNm1 (DYNAMICS) mean= -1.53914961090553E-10
DEBUG_STATS_RL:               GsNm1 (DYNAMICS) S.D.=  1.28702914758912E-08
DEBUG_STATS_RL:    cg2d_b (SOLVE_FOR_PRESSURE)  min= -2.67412271494733E+04
DEBUG_STATS_RL:    cg2d_b (SOLVE_FOR_PRESSURE)  max=  2.85744376520830E+04
DEBUG_STATS_RL:    cg2d_b (SOLVE_FOR_PRESSURE) mean=  5.51511771531906E+00
DEBUG_STATS_RL:    cg2d_b (SOLVE_FOR_PRESSURE) S.D.=  3.94914562255722E+03
 cg2d: Sum(rhs),rhsMax =   4.46815355263263E-01  1.87684557092288E+00
(PID.TID 0000.0001)  cg2d: iter=     1 ; resid.=  4.98087469247191E-02
(PID.TID 0000.0001)  cg2d: iter=     2 ; resid.=  2.72614203152055E-02
(PID.TID 0000.0001)  cg2d: iter=     3 ; resid.=  2.08238264842465E-02
(PID.TID 0000.0001)  cg2d: iter=     4 ; resid.=  2.28837652687888E-02
(PID.TID 0000.0001)  cg2d: iter=     5 ; resid.=  2.12491728173070E-02
(PID.TID 0000.0001)  cg2d: iter=     6 ; resid.=  1.93462648028484E-02
(PID.TID 0000.0001)  cg2d: iter=     7 ; resid.=  1.67640197374299E-02
(PID.TID 0000.0001)  cg2d: iter=     8 ; resid.=  1.37273956213212E-02
(PID.TID 0000.0001)  cg2d: iter=     9 ; resid.=  1.07534330998300E-02
(PID.TID 0000.0001)  cg2d: iter=    10 ; resid.=  8.02439285091830E-03
(PID.TID 0000.0001)  cg2d: iter=    11 ; resid.=  6.02001455827323E-03
(PID.TID 0000.0001)  cg2d: iter=    12 ; resid.=  4.77050167723292E-03
(PID.TID 0000.0001)  cg2d: iter=    13 ; resid.=  3.87807621386130E-03
(PID.TID 0000.0001)  cg2d: iter=    14 ; resid.=  3.24393991720669E-03
(PID.TID 0000.0001)  cg2d: iter=    15 ; resid.=  2.83607081112451E-03
(PID.TID 0000.0001)  cg2d: iter=    16 ; resid.=  2.31975795941899E-03
(PID.TID 0000.0001)  cg2d: iter=    17 ; resid.=  2.02502388587874E-03
(PID.TID 0000.0001)  cg2d: iter=    18 ; resid.=  1.74856664997973E-03
(PID.TID 0000.0001)  cg2d: iter=    19 ; resid.=  1.55611213520803E-03
(PID.TID 0000.0001)  cg2d: iter=    20 ; resid.=  1.24535154659605E-03
(PID.TID 0000.0001)  cg2d: iter=    21 ; resid.=  9.92171147208254E-04
(PID.TID 0000.0001)  cg2d: iter=    22 ; resid.=  7.73963891705968E-04
(PID.TID 0000.0001)  cg2d: iter=    23 ; resid.=  6.32156761617865E-04
(PID.TID 0000.0001)  cg2d: iter=    24 ; resid.=  5.63126506319716E-04
(PID.TID 0000.0001)  cg2d: iter=    25 ; resid.=  5.28316868241205E-04
(PID.TID 0000.0001)  cg2d: iter=    26 ; resid.=  4.19611964734583E-04
(PID.TID 0000.0001)  cg2d: iter=    27 ; resid.=  3.44615755258918E-04
(PID.TID 0000.0001)  cg2d: iter=    28 ; resid.=  2.76802752783319E-04
(PID.TID 0000.0001)  cg2d: iter=    29 ; resid.=  2.24996411280158E-04
(PID.TID 0000.0001)  cg2d: iter=    30 ; resid.=  1.83976955537235E-04
(PID.TID 0000.0001)  cg2d: iter=    31 ; resid.=  1.40384518597562E-04
(PID.TID 0000.0001)  cg2d: iter=    32 ; resid.=  1.14036215421955E-04
(PID.TID 0000.0001)  cg2d: iter=    33 ; resid.=  8.97456370095759E-05
(PID.TID 0000.0001)  cg2d: iter=    34 ; resid.=  7.24767852269492E-05
(PID.TID 0000.0001)  cg2d: iter=    35 ; resid.=  5.82615350261324E-05
(PID.TID 0000.0001)  cg2d: iter=    36 ; resid.=  4.53694308234451E-05
(PID.TID 0000.0001)  cg2d: iter=    37 ; resid.=  3.80886147281458E-05
(PID.TID 0000.0001)  cg2d: iter=    38 ; resid.=  3.39182832326087E-05
(PID.TID 0000.0001)  cg2d: iter=    39 ; resid.=  3.08611417649736E-05
(PID.TID 0000.0001)  cg2d: iter=    40 ; resid.=  2.50650821581202E-05
(PID.TID 0000.0001)  cg2d: iter=    41 ; resid.=  1.86116612076957E-05
(PID.TID 0000.0001)  cg2d: iter=    42 ; resid.=  1.46789841603059E-05
(PID.TID 0000.0001)  cg2d: iter=    43 ; resid.=  1.25239043073480E-05
(PID.TID 0000.0001)  cg2d: iter=    44 ; resid.=  1.08819079512875E-05
(PID.TID 0000.0001)  cg2d: iter=    45 ; resid.=  8.86440024640850E-06
(PID.TID 0000.0001)  cg2d: iter=    46 ; resid.=  6.97830434308980E-06
(PID.TID 0000.0001)  cg2d: iter=    47 ; resid.=  5.42917511934022E-06
(PID.TID 0000.0001)  cg2d: iter=    48 ; resid.=  4.66791314611881E-06
(PID.TID 0000.0001)  cg2d: iter=    49 ; resid.=  3.98443700301839E-06
(PID.TID 0000.0001)  cg2d: iter=    50 ; resid.=  3.18038248945203E-06
(PID.TID 0000.0001)  cg2d: iter=    51 ; resid.=  2.54156304699373E-06
(PID.TID 0000.0001)  cg2d: iter=    52 ; resid.=  1.98372532539192E-06
(PID.TID 0000.0001)  cg2d: iter=    53 ; resid.=  1.66318541891331E-06
(PID.TID 0000.0001)  cg2d: iter=    54 ; resid.=  1.50437782103824E-06
(PID.TID 0000.0001)  cg2d: iter=    55 ; resid.=  1.31102093135860E-06
(PID.TID 0000.0001)  cg2d: iter=    56 ; resid.=  1.10799262243033E-06
(PID.TID 0000.0001)  cg2d: iter=    57 ; resid.=  9.73711143302751E-07
(PID.TID 0000.0001)  cg2d: iter=    58 ; resid.=  8.82106671898820E-07
(PID.TID 0000.0001)  cg2d: iter=    59 ; resid.=  7.18258785888509E-07
(PID.TID 0000.0001)  cg2d: iter=    60 ; resid.=  5.54707141205400E-07
(PID.TID 0000.0001)  cg2d: iter=    61 ; resid.=  4.28697265200811E-07
(PID.TID 0000.0001)  cg2d: iter=    62 ; resid.=  3.64963694325755E-07
(PID.TID 0000.0001)  cg2d: iter=    63 ; resid.=  3.08693062781995E-07
(PID.TID 0000.0001)  cg2d: iter=    64 ; resid.=  2.45279660758191E-07
(PID.TID 0000.0001)  cg2d: iter=    65 ; resid.=  1.98160183018394E-07
(PID.TID 0000.0001)  cg2d: iter=    66 ; resid.=  1.62139871023853E-07
(PID.TID 0000.0001)  cg2d: iter=    67 ; resid.=  1.30052549563974E-07
(PID.TID 0000.0001)  cg2d: iter=    68 ; resid.=  1.13475673070193E-07
(PID.TID 0000.0001)  cg2d: iter=    69 ; resid.=  9.50348453921795E-08
(PID.TID 0000.0001)  cg2d: iter=    70 ; resid.=  7.24098933191275E-08
(PID.TID 0000.0001)  cg2d: iter=    71 ; resid.=  5.78438147880416E-08
(PID.TID 0000.0001)  cg2d: iter=    72 ; resid.=  4.93980089246748E-08
(PID.TID 0000.0001)  cg2d: iter=    73 ; resid.=  4.76683676029077E-08
(PID.TID 0000.0001)  cg2d: iter=    74 ; resid.=  4.56730184897533E-08
(PID.TID 0000.0001)  cg2d: iter=    75 ; resid.=  4.14230053453104E-08
(PID.TID 0000.0001)  cg2d: iter=    76 ; resid.=  3.58414234292927E-08
(PID.TID 0000.0001)  cg2d: iter=    77 ; resid.=  3.09239798255375E-08
(PID.TID 0000.0001)  cg2d: iter=    78 ; resid.=  2.79419485666622E-08
(PID.TID 0000.0001)  cg2d: iter=    79 ; resid.=  2.27972705137707E-08
(PID.TID 0000.0001)  cg2d: iter=    80 ; resid.=  1.63401064709531E-08
(PID.TID 0000.0001)  cg2d: iter=    81 ; resid.=  1.23778639374443E-08
(PID.TID 0000.0001)  cg2d: iter=    82 ; resid.=  8.70476384530917E-09
(PID.TID 0000.0001)  cg2d: iter=    83 ; resid.=  6.62358531243216E-09
(PID.TID 0000.0001)  cg2d: iter=    84 ; resid.=  5.15780805956376E-09
(PID.TID 0000.0001)  cg2d: iter=    85 ; resid.=  3.77942003243206E-09
(PID.TID 0000.0001)  cg2d: iter=    86 ; resid.=  2.85058074859730E-09
(PID.TID 0000.0001)  cg2d: iter=    87 ; resid.=  2.18926884335126E-09
(PID.TID 0000.0001)  cg2d: iter=    88 ; resid.=  1.55598743811348E-09
(PID.TID 0000.0001)  cg2d: iter=    89 ; resid.=  1.19759204585823E-09
(PID.TID 0000.0001)  cg2d: iter=    90 ; resid.=  9.78280096955359E-10
(PID.TID 0000.0001)  cg2d: iter=    91 ; resid.=  7.83470242566067E-10
(PID.TID 0000.0001)  cg2d: iter=    92 ; resid.=  6.88349224541505E-10
(PID.TID 0000.0001)  cg2d: iter=    93 ; resid.=  5.76673236723403E-10
(PID.TID 0000.0001)  cg2d: iter=    94 ; resid.=  4.58942216642816E-10
(PID.TID 0000.0001)  cg2d: iter=    95 ; resid.=  3.53725307290157E-10
(PID.TID 0000.0001)  cg2d: iter=    96 ; resid.=  2.88615015056927E-10
(PID.TID 0000.0001)  cg2d: iter=    97 ; resid.=  2.26773883526475E-10
(PID.TID 0000.0001)  cg2d: iter=    98 ; resid.=  1.73357494382218E-10
(PID.TID 0000.0001)  cg2d: iter=    99 ; resid.=  1.24923266062406E-10
(PID.TID 0000.0001)  cg2d: iter=   100 ; resid.=  1.05630507001151E-10
(PID.TID 0000.0001)  cg2d: iter=   101 ; resid.=  1.04611515243473E-10
(PID.TID 0000.0001)  cg2d: iter=   102 ; resid.=  9.81286785643907E-11
(PID.TID 0000.0001)  cg2d: iter=   103 ; resid.=  7.92610696279594E-11
(PID.TID 0000.0001)  cg2d: iter=   104 ; resid.=  6.15381819066889E-11
(PID.TID 0000.0001)  cg2d: iter=   105 ; resid.=  4.67647512178683E-11
(PID.TID 0000.0001)  cg2d: iter=   106 ; resid.=  3.40822588172555E-11
(PID.TID 0000.0001)  cg2d: iter=   107 ; resid.=  2.69595502049832E-11
(PID.TID 0000.0001)  cg2d: iter=   108 ; resid.=  2.08253598134769E-11
(PID.TID 0000.0001)  cg2d: iter=   109 ; resid.=  1.53719119715516E-11
(PID.TID 0000.0001)  cg2d: iter=   110 ; resid.=  9.96720345886672E-12
(PID.TID 0000.0001)  cg2d: iter=   111 ; resid.=  6.82574268526689E-12
(PID.TID 0000.0001)  cg2d: iter=   112 ; resid.=  5.17063199766895E-12
(PID.TID 0000.0001)  cg2d: iter=   113 ; resid.=  4.17647327224667E-12
(PID.TID 0000.0001)  cg2d: iter=   114 ; resid.=  3.35061070327810E-12
(PID.TID 0000.0001)  cg2d: iter=   115 ; resid.=  2.77820307765344E-12
(PID.TID 0000.0001)  cg2d: iter=   116 ; resid.=  2.09691861890760E-12
(PID.TID 0000.0001)  cg2d: iter=   117 ; resid.=  1.57052442366592E-12
(PID.TID 0000.0001)  cg2d: iter=   118 ; resid.=  1.26728200274919E-12
(PID.TID 0000.0001)  cg2d: iter=   119 ; resid.=  1.00465683767858E-12
(PID.TID 0000.0001)  cg2d: iter=   120 ; resid.=  7.81362099399320E-13
(PID.TID 0000.0001)  cg2d: iter=   121 ; resid.=  5.66711302860653E-13
(PID.TID 0000.0001)  cg2d: iter=   122 ; resid.=  4.24071265908541E-13
(PID.TID 0000.0001)  cg2d: iter=   123 ; resid.=  3.11506375196496E-13
(PID.TID 0000.0001)  cg2d: iter=   124 ; resid.=  2.30346953501970E-13
(PID.TID 0000.0001)  cg2d: iter=   125 ; resid.=  1.71878792902252E-13
(PID.TID 0000.0001)  cg2d: iter=   126 ; resid.=  1.46934807667558E-13
(PID.TID 0000.0001)  cg2d: iter=   127 ; resid.=  1.12112499969394E-13
(PID.TID 0000.0001)  cg2d: iter=   128 ; resid.=  8.42561353819973E-14
DEBUG_STATS_RL:    cg2d_x (SOLVE_FOR_PRESSURE)  min= -1.80803356080783E+01
DEBUG_STATS_RL:    cg2d_x (SOLVE_FOR_PRESSURE)  max=  8.93886656185306E+00
DEBUG_STATS_RL:    cg2d_x (SOLVE_FOR_PRESSURE) mean= -1.87851560192949E+00
DEBUG_STATS_RL:    cg2d_x (SOLVE_FOR_PRESSURE) S.D.=  7.21437112166225E+00
(PID.TID 0000.0001)      cg2d_init_res =   1.87563101306004E-01
(PID.TID 0000.0001)      cg2d_iters(min,last) =      -1     128
(PID.TID 0000.0001)      cg2d_last_res =   8.42561353819973E-14
(PID.TID 0000.0001) // =======================================================
(PID.TID 0000.0001) // Begin MONITOR dynamic field statistics
(PID.TID 0000.0001) // =======================================================
(PID.TID 0000.0001) %MON time_tsnumber                =                    89
(PID.TID 0000.0001) %MON time_secondsf                =   7.6896000000000E+06
(PID.TID 0000.0001) %MON dynstat_eta_max              =   9.1119944565276E-01
(PID.TID 0000.0001) %MON dynstat_eta_min              =  -1.8430515400692E+00
(PID.TID 0000.0001) %MON dynstat_eta_mean             =  -5.7543414839151E-03
(PID.TID 0000.0001) %MON dynstat_eta_sd               =   6.3320023093326E-01
(PID.TID 0000.0001) %MON dynstat_eta_del2             =   2.4916812620152E-03
(PID.TID 0000.0001) %MON dynstat_uvel_max             =   1.5518321042678E-01
(PID.TID 0000.0001) %MON dynstat_uvel_min             =  -1.3156728095759E-01
(PID.TID 0000.0001) %MON dynstat_uvel_mean            =   2.7087659225101E-03
(PID.TID 0000.0001) %MON dynstat_uvel_sd              =   1.3652189579512E-02
(PID.TID 0000.0001) %MON dynstat_uvel_del2            =   8.2985353283768E-05
(PID.TID 0000.0001) %MON dynstat_vvel_max             =   1.2264270943563E-01
(PID.TID 0000.0001) %MON dynstat_vvel_min             =  -7.8994434742028E-02
(PID.TID 0000.0001) %MON dynstat_vvel_mean            =   1.0795322983031E-06
(PID.TID 0000.0001) %MON dynstat_vvel_sd              =   7.6741364557582E-03
(PID.TID 0000.0001) %MON dynstat_vvel_del2            =   7.1996161025130E-05
(PID.TID 0000.0001) %MON dynstat_wvel_max             =   1.2119660583217E-04
(PID.TID 0000.0001) %MON dynstat_wvel_min             =  -5.3576695566844E-05
(PID.TID 0000.0001) %MON dynstat_wvel_mean            =  -2.0023933677098E-23
(PID.TID 0000.0001) %MON dynstat_wvel_sd              =   9.0963492955056E-06
(PID.TID 0000.0001) %MON dynstat_wvel_del2            =   9.0089890413264E-08
(PID.TID 0000.0001) %MON dynstat_theta_max            =   3.1200017550728E+01
(PID.TID 0000.0001) %MON dynstat_theta_min            =  -1.9341127030601E+00
(PID.TID 0000.0001) %MON dynstat_theta_mean           =   3.6243647492523E+00
(PID.TID 0000.0001) %MON dynstat_theta_sd             =   4.4286919730246E+00
(PID.TID 0000.0001) %MON dynstat_theta_del2           =   4.8250919040488E-03
(PID.TID 0000.0001) %MON dynstat_salt_max             =   3.7468323776990E+01
(PID.TID 0000.0001) %MON dynstat_salt_min             =   2.9940642019136E+01
(PID.TID 0000.0001) %MON dynstat_salt_mean            =   3.4718003506330E+01
(PID.TID 0000.0001) %MON dynstat_salt_sd              =   2.9664753610262E-01
(PID.TID 0000.0001) %MON dynstat_salt_del2            =   9.9856836876533E-04
(PID.TID 0000.0001) %MON dynstat_sst_max              =   3.1200017550728E+01
(PID.TID 0000.0001) %MON dynstat_sst_min              =  -1.9341127030601E+00
(PID.TID 0000.0001) %MON dynstat_sst_mean             =   1.9048484454022E+01
(PID.TID 0000.0001) %MON dynstat_sst_sd               =   9.2446459617106E+00
(PID.TID 0000.0001) %MON dynstat_sst_del2             =   2.9311912297889E-02
(PID.TID 0000.0001) %MON dynstat_sss_max              =   3.7468323776990E+01
(PID.TID 0000.0001) %MON dynstat_sss_min              =   2.9940642019136E+01
(PID.TID 0000.0001) %MON dynstat_sss_mean             =   3.4836802173821E+01
(PID.TID 0000.0001) %MON dynstat_sss_sd               =   9.9026840252410E-01
(PID.TID 0000.0001) %MON dynstat_sss_del2             =   8.3082322643830E-03
(PID.TID 0000.0001) %MON forcing_qnet_max             =   2.1333963826497E+02
(PID.TID 0000.0001) %MON forcing_qnet_min             =  -1.5829163869222E+02
(PID.TID 0000.0001) %MON forcing_qnet_mean            =  -2.1035924135394E+00
(PID.TID 0000.0001) %MON forcing_qnet_sd              =   3.9378744149303E+01
(PID.TID 0000.0001) %MON forcing_qnet_del2            =   7.8682598248639E-01
(PID.TID 0000.0001) %MON forcing_qsw_max              =   0.0000000000000E+00
(PID.TID 0000.0001) %MON forcing_qsw_min              =   0.0000000000000E+00
(PID.TID 0000.0001) %MON forcing_qsw_mean             =   0.0000000000000E+00
(PID.TID 0000.0001) %MON forcing_qsw_sd               =   0.0000000000000E+00
(PID.TID 0000.0001) %MON forcing_qsw_del2             =   0.0000000000000E+00
(PID.TID 0000.0001) %MON forcing_empmr_max            =   6.7858598621721E-05
(PID.TID 0000.0001) %MON forcing_empmr_min            =  -8.3457416621968E-05
(PID.TID 0000.0001) %MON forcing_empmr_mean           =   2.5892131092034E-07
(PID.TID 0000.0001) %MON forcing_empmr_sd             =   2.5615270764388E-05
(PID.TID 0000.0001) %MON forcing_empmr_del2           =   3.6333336440731E-07
(PID.TID 0000.0001) %MON forcing_fu_max               =   3.4887377023697E-01
(PID.TID 0000.0001) %MON forcing_fu_min               =  -4.0068635642529E-01
(PID.TID 0000.0001) %MON forcing_fu_mean              =   1.8803232040261E-02
(PID.TID 0000.0001) %MON forcing_fu_sd                =   1.0027933019138E-01
(PID.TID 0000.0001) %MON forcing_fu_del2              =   7.7731111628185E-04
(PID.TID 0000.0001) %MON forcing_fv_max               =   1.8205233017604E-01
(PID.TID 0000.0001) %MON forcing_fv_min               =  -1.4903136293093E-01
(PID.TID 0000.0001) %MON forcing_fv_mean              =  -7.0553786991952E-03
(PID.TID 0000.0001) %MON forcing_fv_sd                =   3.8949486198953E-02
(PID.TID 0000.0001) %MON forcing_fv_del2              =   4.2056480226922E-04
(PID.TID 0000.0001) %MON trAdv_CFL_u_max              =   4.1003414446163E-02
(PID.TID 0000.0001) %MON trAdv_CFL_v_max              =   2.3693118609702E-02
(PID.TID 0000.0001) %MON trAdv_CFL_w_max              =   2.7025226363444E-02
(PID.TID 0000.0001) %MON advcfl_uvel_max              =   4.0585281492750E-02
(PID.TID 0000.0001) %MON advcfl_vvel_max              =   2.3827511490763E-02
(PID.TID 0000.0001) %MON advcfl_wvel_max              =   2.7946004990990E-02
(PID.TID 0000.0001) %MON advcfl_W_hf_max              =   3.3712306071799E-02
(PID.TID 0000.0001) %MON pe_b_mean                    =   5.1309666837891E-04
(PID.TID 0000.0001) %MON ke_max                       =   1.3467117993186E-02
(PID.TID 0000.0001) %MON ke_mean                      =   1.1444915534042E-04
(PID.TID 0000.0001) %MON ke_vol                       =   1.3226782436723E+18
(PID.TID 0000.0001) %MON vort_r_min                   =  -3.5638177483578E-07
(PID.TID 0000.0001) %MON vort_r_max                   =   3.6685852414170E-07
(PID.TID 0000.0001) %MON vort_a_mean                  =  -2.5274807002490E-05
(PID.TID 0000.0001) %MON vort_a_sd                    =   7.3604724580121E-05
(PID.TID 0000.0001) %MON vort_p_mean                  =  -3.1845655301831E-05
(PID.TID 0000.0001) %MON vort_p_sd                    =   1.3162491993018E-04
(PID.TID 0000.0001) %MON surfExpan_theta_mean         =   1.7308414182575E-07
(PID.TID 0000.0001) %MON surfExpan_salt_mean          =  -1.0674910745013E-08
(PID.TID 0000.0001) // =======================================================
(PID.TID 0000.0001) // End MONITOR dynamic field statistics
(PID.TID 0000.0001) // =======================================================
 EXTERNAL_FIELDS_LOAD,        89 : iP,iLd,i0,i1=    3    4    3    4 ; Wght=  0.5333333333  0.4666666667
 EXTERNAL_FIELDS_LOAD: (fu0,1),fu,fv= -2.7199E-02 -3.7252E-02 -3.1890E-02 -1.6742E-02
 EXTERNAL_FIELDS_LOAD: SST,SSS,Q,E-P= -8.1592E-02  3.4574E+01  1.6346E+02  8.4686E-06
DEBUG_STATS_RL:          Uvel (THERMODYNAMICS)  min= -1.31567280957593E-01
DEBUG_STATS_RL:          Uvel (THERMODYNAMICS)  max=  1.55183210426776E-01
DEBUG_STATS_RL:          Uvel (THERMODYNAMICS) mean=  6.17668488497689E-03
DEBUG_STATS_RL:          Uvel (THERMODYNAMICS) S.D.=  2.17815072855261E-02
DEBUG_STATS_RL:          Vvel (THERMODYNAMICS)  min= -7.89944347420283E-02
DEBUG_STATS_RL:          Vvel (THERMODYNAMICS)  max=  1.22642709435633E-01
DEBUG_STATS_RL:          Vvel (THERMODYNAMICS) mean=  9.02859861947212E-04
DEBUG_STATS_RL:          Vvel (THERMODYNAMICS) S.D.=  1.25878120244704E-02
DEBUG_STATS_RL:          Wvel (THERMODYNAMICS)  min= -5.35766955668435E-05
DEBUG_STATS_RL:          Wvel (THERMODYNAMICS)  max=  1.21196605832174E-04
DEBUG_STATS_RL:          Wvel (THERMODYNAMICS) mean= -4.00267620701888E-08
DEBUG_STATS_RL:          Wvel (THERMODYNAMICS) S.D.=  8.04105894598178E-06
DEBUG_STATS_RL:         Theta (THERMODYNAMICS)  min= -1.93303141731551E+00
DEBUG_STATS_RL:         Theta (THERMODYNAMICS)  max=  3.12150001833799E+01
DEBUG_STATS_RL:         Theta (THERMODYNAMICS) mean=  3.22052145141232E+00
DEBUG_STATS_RL:         Theta (THERMODYNAMICS) S.D.=  5.88879032011192E+00
DEBUG_STATS_RL:          Salt (THERMODYNAMICS)  min= -3.12250225675825E-17
DEBUG_STATS_RL:          Salt (THERMODYNAMICS)  max=  3.74691891124079E+01
DEBUG_STATS_RL:          Salt (THERMODYNAMICS) mean=  1.88447474151391E+01
DEBUG_STATS_RL:          Salt (THERMODYNAMICS) S.D.=  1.73003056034223E+01
DEBUG_STATS_RL:         GtNm1 (THERMODYNAMICS)  min= -3.24633558168562E-06
DEBUG_STATS_RL:         GtNm1 (THERMODYNAMICS)  max=  2.27018498169985E-06
DEBUG_STATS_RL:         GtNm1 (THERMODYNAMICS) mean= -1.83201113305549E-09
DEBUG_STATS_RL:         GtNm1 (THERMODYNAMICS) S.D.=  1.31086644192705E-07
DEBUG_STATS_RL:         GsNm1 (THERMODYNAMICS)  min= -3.85784408997045E-07
DEBUG_STATS_RL:         GsNm1 (THERMODYNAMICS)  max=  2.30970552710766E-07
DEBUG_STATS_RL:         GsNm1 (THERMODYNAMICS) mean= -1.76339084602358E-10
DEBUG_STATS_RL:         GsNm1 (THERMODYNAMICS) S.D.=  1.29705302884167E-08
DEBUG_STATS_RL:                EtaN (DYNAMICS)  min= -1.84305154006920E+00
DEBUG_STATS_RL:                EtaN (DYNAMICS)  max=  9.11199445652762E-01
DEBUG_STATS_RL:                EtaN (DYNAMICS) mean= -1.91489867678848E-01
DEBUG_STATS_RL:                EtaN (DYNAMICS) S.D.=  7.35409900271387E-01
DEBUG_STATS_RL:                Uvel (DYNAMICS)  min= -1.31567280957593E-01
DEBUG_STATS_RL:                Uvel (DYNAMICS)  max=  1.55183210426776E-01
DEBUG_STATS_RL:                Uvel (DYNAMICS) mean=  6.17668488497689E-03
DEBUG_STATS_RL:                Uvel (DYNAMICS) S.D.=  2.17815072855261E-02
DEBUG_STATS_RL:                Vvel (DYNAMICS)  min= -7.89944347420283E-02
DEBUG_STATS_RL:                Vvel (DYNAMICS)  max=  1.22642709435633E-01
DEBUG_STATS_RL:                Vvel (DYNAMICS) mean=  9.02859861947212E-04
DEBUG_STATS_RL:                Vvel (DYNAMICS) S.D.=  1.25878120244704E-02
DEBUG_STATS_RL:                Wvel (DYNAMICS)  min= -5.35766955668435E-05
DEBUG_STATS_RL:                Wvel (DYNAMICS)  max=  1.21196605832174E-04
DEBUG_STATS_RL:                Wvel (DYNAMICS) mean= -4.00267620701888E-08
DEBUG_STATS_RL:                Wvel (DYNAMICS) S.D.=  8.04105894598178E-06
DEBUG_STATS_RL:               Theta (DYNAMICS)  min= -1.93303141731551E+00
DEBUG_STATS_RL:               Theta (DYNAMICS)  max=  3.12150001833799E+01
DEBUG_STATS_RL:               Theta (DYNAMICS) mean=  3.22052145141232E+00
DEBUG_STATS_RL:               Theta (DYNAMICS) S.D.=  5.88879032011192E+00
DEBUG_STATS_RL:                Salt (DYNAMICS)  min= -3.12250225675825E-17
DEBUG_STATS_RL:                Salt (DYNAMICS)  max=  3.74691891124079E+01
DEBUG_STATS_RL:                Salt (DYNAMICS) mean=  1.88447474151391E+01
DEBUG_STATS_RL:                Salt (DYNAMICS) S.D.=  1.73003056034223E+01
DEBUG_STATS_RL:                  Gu (DYNAMICS)  min= -1.30546236883544E-01
DEBUG_STATS_RL:                  Gu (DYNAMICS)  max=  1.52532308570248E-01
DEBUG_STATS_RL:                  Gu (DYNAMICS) mean=  6.12708239332427E-03
DEBUG_STATS_RL:                  Gu (DYNAMICS) S.D.=  2.21818425733252E-02
DEBUG_STATS_RL:                  Gv (DYNAMICS)  min= -7.73251456728733E-02
DEBUG_STATS_RL:                  Gv (DYNAMICS)  max=  1.22878491608639E-01
DEBUG_STATS_RL:                  Gv (DYNAMICS) mean=  3.55767631368059E-03
DEBUG_STATS_RL:                  Gv (DYNAMICS) S.D.=  1.42028718248554E-02
DEBUG_STATS_RL:               GuNm1 (DYNAMICS)  min= -9.55269581756596E-06
DEBUG_STATS_RL:               GuNm1 (DYNAMICS)  max=  9.61541530296381E-06
DEBUG_STATS_RL:               GuNm1 (DYNAMICS) mean=  1.16744294203830E-08
DEBUG_STATS_RL:               GuNm1 (DYNAMICS) S.D.=  1.22396129984775E-06
DEBUG_STATS_RL:               GvNm1 (DYNAMICS)  min= -9.35471366976294E-06
DEBUG_STATS_RL:               GvNm1 (DYNAMICS)  max=  1.52292997717917E-05
DEBUG_STATS_RL:               GvNm1 (DYNAMICS) mean=  7.38362062814211E-07
DEBUG_STATS_RL:               GvNm1 (DYNAMICS) S.D.=  2.60298624066279E-06
DEBUG_STATS_RL:               GtNm1 (DYNAMICS)  min= -3.24633558168562E-06
DEBUG_STATS_RL:               GtNm1 (DYNAMICS)  max=  2.27018498169985E-06
DEBUG_STATS_RL:               GtNm1 (DYNAMICS) mean= -1.83201113305549E-09
DEBUG_STATS_RL:               GtNm1 (DYNAMICS) S.D.=  1.31086644192705E-07
DEBUG_STATS_RL:               GsNm1 (DYNAMICS)  min= -3.85784408997045E-07
DEBUG_STATS_RL:               GsNm1 (DYNAMICS)  max=  2.30970552710766E-07
DEBUG_STATS_RL:               GsNm1 (DYNAMICS) mean= -1.76339084602358E-10
DEBUG_STATS_RL:               GsNm1 (DYNAMICS) S.D.=  1.29705302884167E-08
DEBUG_STATS_RL:    cg2d_b (SOLVE_FOR_PRESSURE)  min= -2.68833618261371E+04
DEBUG_STATS_RL:    cg2d_b (SOLVE_FOR_PRESSURE)  max=  2.87351326037314E+04
DEBUG_STATS_RL:    cg2d_b (SOLVE_FOR_PRESSURE) mean=  5.53403764508499E+00
DEBUG_STATS_RL:    cg2d_b (SOLVE_FOR_PRESSURE) S.D.=  3.95601366810945E+03
 cg2d: Sum(rhs),rhsMax =   4.45840891881157E-01  1.88740044559594E+00
(PID.TID 0000.0001)  cg2d: iter=     1 ; resid.=  4.84880085683274E-02
(PID.TID 0000.0001)  cg2d: iter=     2 ; resid.=  2.66836680242216E-02
(PID.TID 0000.0001)  cg2d: iter=     3 ; resid.=  2.08079108064010E-02
(PID.TID 0000.0001)  cg2d: iter=     4 ; resid.=  2.32966219517465E-02
(PID.TID 0000.0001)  cg2d: iter=     5 ; resid.=  2.15336917721029E-02
(PID.TID 0000.0001)  cg2d: iter=     6 ; resid.=  1.96308773035095E-02
(PID.TID 0000.0001)  cg2d: iter=     7 ; resid.=  1.67752705868086E-02
(PID.TID 0000.0001)  cg2d: iter=     8 ; resid.=  1.36366674218316E-02
(PID.TID 0000.0001)  cg2d: iter=     9 ; resid.=  1.07977435841260E-02
(PID.TID 0000.0001)  cg2d: iter=    10 ; resid.=  8.03237408037827E-03
(PID.TID 0000.0001)  cg2d: iter=    11 ; resid.=  6.02124312801482E-03
(PID.TID 0000.0001)  cg2d: iter=    12 ; resid.=  4.83128393046975E-03
(PID.TID 0000.0001)  cg2d: iter=    13 ; resid.=  3.99751455562526E-03
(PID.TID 0000.0001)  cg2d: iter=    14 ; resid.=  3.40889274484765E-03
(PID.TID 0000.0001)  cg2d: iter=    15 ; resid.=  2.97859379033597E-03
(PID.TID 0000.0001)  cg2d: iter=    16 ; resid.=  2.43017995376155E-03
(PID.TID 0000.0001)  cg2d: iter=    17 ; resid.=  2.12718801524229E-03
(PID.TID 0000.0001)  cg2d: iter=    18 ; resid.=  1.82011425976496E-03
(PID.TID 0000.0001)  cg2d: iter=    19 ; resid.=  1.58491744065017E-03
(PID.TID 0000.0001)  cg2d: iter=    20 ; resid.=  1.25968425007375E-03
(PID.TID 0000.0001)  cg2d: iter=    21 ; resid.=  1.00702090604349E-03
(PID.TID 0000.0001)  cg2d: iter=    22 ; resid.=  7.91792932398127E-04
(PID.TID 0000.0001)  cg2d: iter=    23 ; resid.=  6.43628963924567E-04
(PID.TID 0000.0001)  cg2d: iter=    24 ; resid.=  5.79629621780174E-04
(PID.TID 0000.0001)  cg2d: iter=    25 ; resid.=  5.46562390629649E-04
(PID.TID 0000.0001)  cg2d: iter=    26 ; resid.=  4.33700451427953E-04
(PID.TID 0000.0001)  cg2d: iter=    27 ; resid.=  3.54212832001242E-04
(PID.TID 0000.0001)  cg2d: iter=    28 ; resid.=  2.84255484315132E-04
(PID.TID 0000.0001)  cg2d: iter=    29 ; resid.=  2.28539457797887E-04
(PID.TID 0000.0001)  cg2d: iter=    30 ; resid.=  1.85499567709484E-04
(PID.TID 0000.0001)  cg2d: iter=    31 ; resid.=  1.41666602134525E-04
(PID.TID 0000.0001)  cg2d: iter=    32 ; resid.=  1.15622478983710E-04
(PID.TID 0000.0001)  cg2d: iter=    33 ; resid.=  8.95477213689573E-05
(PID.TID 0000.0001)  cg2d: iter=    34 ; resid.=  7.26418120342703E-05
(PID.TID 0000.0001)  cg2d: iter=    35 ; resid.=  5.84870052621178E-05
(PID.TID 0000.0001)  cg2d: iter=    36 ; resid.=  4.54172272931029E-05
(PID.TID 0000.0001)  cg2d: iter=    37 ; resid.=  3.79610552294915E-05
(PID.TID 0000.0001)  cg2d: iter=    38 ; resid.=  3.38479841292030E-05
(PID.TID 0000.0001)  cg2d: iter=    39 ; resid.=  3.06940320442170E-05
(PID.TID 0000.0001)  cg2d: iter=    40 ; resid.=  2.47888550328109E-05
(PID.TID 0000.0001)  cg2d: iter=    41 ; resid.=  1.84958527467802E-05
(PID.TID 0000.0001)  cg2d: iter=    42 ; resid.=  1.44826494134572E-05
(PID.TID 0000.0001)  cg2d: iter=    43 ; resid.=  1.23877920974655E-05
(PID.TID 0000.0001)  cg2d: iter=    44 ; resid.=  1.06412318536522E-05
(PID.TID 0000.0001)  cg2d: iter=    45 ; resid.=  8.64242729336706E-06
(PID.TID 0000.0001)  cg2d: iter=    46 ; resid.=  6.83705255559708E-06
(PID.TID 0000.0001)  cg2d: iter=    47 ; resid.=  5.36572073145059E-06
(PID.TID 0000.0001)  cg2d: iter=    48 ; resid.=  4.60279594718236E-06
(PID.TID 0000.0001)  cg2d: iter=    49 ; resid.=  3.88699242386594E-06
(PID.TID 0000.0001)  cg2d: iter=    50 ; resid.=  3.06489131432086E-06
(PID.TID 0000.0001)  cg2d: iter=    51 ; resid.=  2.40209547371380E-06
(PID.TID 0000.0001)  cg2d: iter=    52 ; resid.=  1.84837232287965E-06
(PID.TID 0000.0001)  cg2d: iter=    53 ; resid.=  1.52822511144465E-06
(PID.TID 0000.0001)  cg2d: iter=    54 ; resid.=  1.38424810423365E-06
(PID.TID 0000.0001)  cg2d: iter=    55 ; resid.=  1.21767102297432E-06
(PID.TID 0000.0001)  cg2d: iter=    56 ; resid.=  1.03129415029533E-06
(PID.TID 0000.0001)  cg2d: iter=    57 ; resid.=  9.07301886352231E-07
(PID.TID 0000.0001)  cg2d: iter=    58 ; resid.=  8.09602255651218E-07
(PID.TID 0000.0001)  cg2d: iter=    59 ; resid.=  6.52240045304663E-07
(PID.TID 0000.0001)  cg2d: iter=    60 ; resid.=  4.99085229680366E-07
(PID.TID 0000.0001)  cg2d: iter=    61 ; resid.=  3.79981348781667E-07
(PID.TID 0000.0001)  cg2d: iter=    62 ; resid.=  3.15184557287035E-07
(PID.TID 0000.0001)  cg2d: iter=    63 ; resid.=  2.63475110225572E-07
(PID.TID 0000.0001)  cg2d: iter=    64 ; resid.=  2.12606924803028E-07
(PID.TID 0000.0001)  cg2d: iter=    65 ; resid.=  1.73683256369571E-07
(PID.TID 0000.0001)  cg2d: iter=    66 ; resid.=  1.41642509775342E-07
(PID.TID 0000.0001)  cg2d: iter=    67 ; resid.=  1.11423256359844E-07
(PID.TID 0000.0001)  cg2d: iter=    68 ; resid.=  9.37174410153755E-08
(PID.TID 0000.0001)  cg2d: iter=    69 ; resid.=  7.51724657073961E-08
(PID.TID 0000.0001)  cg2d: iter=    70 ; resid.=  5.43779835216641E-08
(PID.TID 0000.0001)  cg2d: iter=    71 ; resid.=  4.08365973443440E-08
(PID.TID 0000.0001)  cg2d: iter=    72 ; resid.=  3.14790040954018E-08
(PID.TID 0000.0001)  cg2d: iter=    73 ; resid.=  2.85547769834562E-08
(PID.TID 0000.0001)  cg2d: iter=    74 ; resid.=  2.68493804116723E-08
(PID.TID 0000.0001)  cg2d: iter=    75 ; resid.=  2.54023990253099E-08
(PID.TID 0000.0001)  cg2d: iter=    76 ; resid.=  2.33006695505718E-08
(PID.TID 0000.0001)  cg2d: iter=    77 ; resid.=  2.12345574058824E-08
(PID.TID 0000.0001)  cg2d: iter=    78 ; resid.=  2.03991144329545E-08
(PID.TID 0000.0001)  cg2d: iter=    79 ; resid.=  1.79708075405631E-08
(PID.TID 0000.0001)  cg2d: iter=    80 ; resid.=  1.33577614438644E-08
(PID.TID 0000.0001)  cg2d: iter=    81 ; resid.=  1.03931492686429E-08
(PID.TID 0000.0001)  cg2d: iter=    82 ; resid.=  7.53932362234602E-09
(PID.TID 0000.0001)  cg2d: iter=    83 ; resid.=  5.84454002537898E-09
(PID.TID 0000.0001)  cg2d: iter=    84 ; resid.=  4.68679791217416E-09
(PID.TID 0000.0001)  cg2d: iter=    85 ; resid.=  3.61300432216194E-09
(PID.TID 0000.0001)  cg2d: iter=    86 ; resid.=  2.80189381187336E-09
(PID.TID 0000.0001)  cg2d: iter=    87 ; resid.=  2.23451108882991E-09
(PID.TID 0000.0001)  cg2d: iter=    88 ; resid.=  1.64409441435311E-09
(PID.TID 0000.0001)  cg2d: iter=    89 ; resid.=  1.30650599798258E-09
(PID.TID 0000.0001)  cg2d: iter=    90 ; resid.=  1.08359021512726E-09
(PID.TID 0000.0001)  cg2d: iter=    91 ; resid.=  8.79362238857288E-10
(PID.TID 0000.0001)  cg2d: iter=    92 ; resid.=  7.73003609655878E-10
(PID.TID 0000.0001)  cg2d: iter=    93 ; resid.=  6.40718515316150E-10
(PID.TID 0000.0001)  cg2d: iter=    94 ; resid.=  5.18784582880701E-10
(PID.TID 0000.0001)  cg2d: iter=    95 ; resid.=  4.02404460678970E-10
(PID.TID 0000.0001)  cg2d: iter=    96 ; resid.=  3.36470117518170E-10
(PID.TID 0000.0001)  cg2d: iter=    97 ; resid.=  2.75635529175484E-10
(PID.TID 0000.0001)  cg2d: iter=    98 ; resid.=  2.17031090867117E-10
(PID.TID 0000.0001)  cg2d: iter=    99 ; resid.=  1.62275254225862E-10
(PID.TID 0000.0001)  cg2d: iter=   100 ; resid.=  1.42431059784516E-10
(PID.TID 0000.0001)  cg2d: iter=   101 ; resid.=  1.35576490136128E-10
(PID.TID 0000.0001)  cg2d: iter=   102 ; resid.=  1.16947917644639E-10
(PID.TID 0000.0001)  cg2d: iter=   103 ; resid.=  8.92798147487837E-11
(PID.TID 0000.0001)  cg2d: iter=   104 ; resid.=  6.48671929164643E-11
(PID.TID 0000.0001)  cg2d: iter=   105 ; resid.=  4.71815139215415E-11
(PID.TID 0000.0001)  cg2d: iter=   106 ; resid.=  3.35988875343390E-11
(PID.TID 0000.0001)  cg2d: iter=   107 ; resid.=  2.60635950672543E-11
(PID.TID 0000.0001)  cg2d: iter=   108 ; resid.=  2.00911788114079E-11
(PID.TID 0000.0001)  cg2d: iter=   109 ; resid.=  1.50919444231686E-11
(PID.TID 0000.0001)  cg2d: iter=   110 ; resid.=  9.95248362274004E-12
(PID.TID 0000.0001)  cg2d: iter=   111 ; resid.=  6.87054130981711E-12
(PID.TID 0000.0001)  cg2d: iter=   112 ; resid.=  5.31643715107384E-12
(PID.TID 0000.0001)  cg2d: iter=   113 ; resid.=  4.26455948983000E-12
(PID.TID 0000.0001)  cg2d: iter=   114 ; resid.=  3.41005254884073E-12
(PID.TID 0000.0001)  cg2d: iter=   115 ; resid.=  2.79226298943013E-12
(PID.TID 0000.0001)  cg2d: iter=   116 ; resid.=  2.01463842446801E-12
(PID.TID 0000.0001)  cg2d: iter=   117 ; resid.=  1.46838839849552E-12
(PID.TID 0000.0001)  cg2d: iter=   118 ; resid.=  1.19364463247897E-12
(PID.TID 0000.0001)  cg2d: iter=   119 ; resid.=  9.43113096143660E-13
(PID.TID 0000.0001)  cg2d: iter=   120 ; resid.=  7.18532940580983E-13
(PID.TID 0000.0001)  cg2d: iter=   121 ; resid.=  5.25760427285945E-13
(PID.TID 0000.0001)  cg2d: iter=   122 ; resid.=  3.94559154121509E-13
(PID.TID 0000.0001)  cg2d: iter=   123 ; resid.=  2.92506237879804E-13
(PID.TID 0000.0001)  cg2d: iter=   124 ; resid.=  2.17497227043285E-13
(PID.TID 0000.0001)  cg2d: iter=   125 ; resid.=  1.60915464657877E-13
(PID.TID 0000.0001)  cg2d: iter=   126 ; resid.=  1.33488521961674E-13
(PID.TID 0000.0001)  cg2d: iter=   127 ; resid.=  9.74498691418156E-14
DEBUG_STATS_RL:    cg2d_x (SOLVE_FOR_PRESSURE)  min= -1.80910796099265E+01
DEBUG_STATS_RL:    cg2d_x (SOLVE_FOR_PRESSURE)  max=  8.97057696745886E+00
DEBUG_STATS_RL:    cg2d_x (SOLVE_FOR_PRESSURE) mean= -1.88352369315090E+00
DEBUG_STATS_RL:    cg2d_x (SOLVE_FOR_PRESSURE) S.D.=  7.23641691195711E+00
(PID.TID 0000.0001)      cg2d_init_res =   1.84934173789164E-01
(PID.TID 0000.0001)      cg2d_iters(min,last) =      -1     127
(PID.TID 0000.0001)      cg2d_last_res =   9.74498691418156E-14
(PID.TID 0000.0001) // =======================================================
(PID.TID 0000.0001) // Begin MONITOR dynamic field statistics
(PID.TID 0000.0001) // =======================================================
(PID.TID 0000.0001) %MON time_tsnumber                =                    90
(PID.TID 0000.0001) %MON time_secondsf                =   7.7760000000000E+06
(PID.TID 0000.0001) %MON dynstat_eta_max              =   9.1443190290103E-01
(PID.TID 0000.0001) %MON dynstat_eta_min              =  -1.8441467492276E+00
(PID.TID 0000.0001) %MON dynstat_eta_mean             =  -5.7740820846320E-03
(PID.TID 0000.0001) %MON dynstat_eta_sd               =   6.3556751125950E-01
(PID.TID 0000.0001) %MON dynstat_eta_del2             =   2.4955834536379E-03
(PID.TID 0000.0001) %MON dynstat_uvel_max             =   1.5270955362086E-01
(PID.TID 0000.0001) %MON dynstat_uvel_min             =  -1.3141025596347E-01
(PID.TID 0000.0001) %MON dynstat_uvel_mean            =   2.7138261406551E-03
(PID.TID 0000.0001) %MON dynstat_uvel_sd              =   1.3645516502173E-02
(PID.TID 0000.0001) %MON dynstat_uvel_del2            =   8.2987261642771E-05
(PID.TID 0000.0001) %MON dynstat_vvel_max             =   1.2288311406504E-01
(PID.TID 0000.0001) %MON dynstat_vvel_min             =  -7.8303417590442E-02
(PID.TID 0000.0001) %MON dynstat_vvel_mean            =   1.7304818484493E-06
(PID.TID 0000.0001) %MON dynstat_vvel_sd              =   7.6516339605269E-03
(PID.TID 0000.0001) %MON dynstat_vvel_del2            =   7.2220401716997E-05
(PID.TID 0000.0001) %MON dynstat_wvel_max             =   1.2121704944915E-04
(PID.TID 0000.0001) %MON dynstat_wvel_min             =  -5.3585841599149E-05
(PID.TID 0000.0001) %MON dynstat_wvel_mean            =  -8.8467711560789E-23
(PID.TID 0000.0001) %MON dynstat_wvel_sd              =   9.0439791837781E-06
(PID.TID 0000.0001) %MON dynstat_wvel_del2            =   8.9471848835372E-08
(PID.TID 0000.0001) %MON dynstat_theta_max            =   3.1215000183380E+01
(PID.TID 0000.0001) %MON dynstat_theta_min            =  -1.9330314173155E+00
(PID.TID 0000.0001) %MON dynstat_theta_mean           =   3.6243695371611E+00
(PID.TID 0000.0001) %MON dynstat_theta_sd             =   4.4287538605218E+00
(PID.TID 0000.0001) %MON dynstat_theta_del2           =   4.8218952383541E-03
(PID.TID 0000.0001) %MON dynstat_salt_max             =   3.7469189112408E+01
(PID.TID 0000.0001) %MON dynstat_salt_min             =   2.9943463582998E+01
(PID.TID 0000.0001) %MON dynstat_salt_mean            =   3.4718004202970E+01
(PID.TID 0000.0001) %MON dynstat_salt_sd              =   2.9665647281495E-01
(PID.TID 0000.0001) %MON dynstat_salt_del2            =   9.9894726145381E-04
(PID.TID 0000.0001) %MON dynstat_sst_max              =   3.1215000183380E+01
(PID.TID 0000.0001) %MON dynstat_sst_min              =  -1.9330314173155E+00
(PID.TID 0000.0001) %MON dynstat_sst_mean             =   1.9046141330395E+01
(PID.TID 0000.0001) %MON dynstat_sst_sd               =   9.2519678016767E+00
(PID.TID 0000.0001) %MON dynstat_sst_del2             =   2.9342510158294E-02
(PID.TID 0000.0001) %MON dynstat_sss_max              =   3.7469189112408E+01
(PID.TID 0000.0001) %MON dynstat_sss_min              =   2.9943463582998E+01
(PID.TID 0000.0001) %MON dynstat_sss_mean             =   3.4836651421479E+01
(PID.TID 0000.0001) %MON dynstat_sss_sd               =   9.9070267739864E-01
(PID.TID 0000.0001) %MON dynstat_sss_del2             =   8.3187247461033E-03
(PID.TID 0000.0001) %MON forcing_qnet_max             =   2.0863440348307E+02
(PID.TID 0000.0001) %MON forcing_qnet_min             =  -1.5786364237467E+02
(PID.TID 0000.0001) %MON forcing_qnet_mean            =  -1.7065559845698E+00
(PID.TID 0000.0001) %MON forcing_qnet_sd              =   3.9345736238707E+01
(PID.TID 0000.0001) %MON forcing_qnet_del2            =   7.8520764018377E-01
(PID.TID 0000.0001) %MON forcing_qsw_max              =   0.0000000000000E+00
(PID.TID 0000.0001) %MON forcing_qsw_min              =   0.0000000000000E+00
(PID.TID 0000.0001) %MON forcing_qsw_mean             =   0.0000000000000E+00
(PID.TID 0000.0001) %MON forcing_qsw_sd               =   0.0000000000000E+00
(PID.TID 0000.0001) %MON forcing_qsw_del2             =   0.0000000000000E+00
(PID.TID 0000.0001) %MON forcing_empmr_max            =   6.7762427609826E-05
(PID.TID 0000.0001) %MON forcing_empmr_min            =  -8.3472262701889E-05
(PID.TID 0000.0001) %MON forcing_empmr_mean           =   2.3647594609277E-07
(PID.TID 0000.0001) %MON forcing_empmr_sd             =   2.5588502568847E-05
(PID.TID 0000.0001) %MON forcing_empmr_del2           =   3.6361092950638E-07
(PID.TID 0000.0001) %MON forcing_fu_max               =   3.4838171601295E-01
(PID.TID 0000.0001) %MON forcing_fu_min               =  -4.0161942839622E-01
(PID.TID 0000.0001) %MON forcing_fu_mean              =   1.8676039943328E-02
(PID.TID 0000.0001) %MON forcing_fu_sd                =   1.0030398135610E-01
(PID.TID 0000.0001) %MON forcing_fu_del2              =   7.7661497197637E-04
(PID.TID 0000.0001) %MON forcing_fv_max               =   1.8195632894834E-01
(PID.TID 0000.0001) %MON forcing_fv_min               =  -1.4562365015348E-01
(PID.TID 0000.0001) %MON forcing_fv_mean              =  -7.0189020268222E-03
(PID.TID 0000.0001) %MON forcing_fv_sd                =   3.8838554387626E-02
(PID.TID 0000.0001) %MON forcing_fv_del2              =   4.1811090198709E-04
(PID.TID 0000.0001) %MON trAdv_CFL_u_max              =   4.0593524653692E-02
(PID.TID 0000.0001) %MON trAdv_CFL_v_max              =   2.3788788106430E-02
(PID.TID 0000.0001) %MON trAdv_CFL_w_max              =   2.6876415962665E-02
(PID.TID 0000.0001) %MON advcfl_uvel_max              =   4.1658865759483E-02
(PID.TID 0000.0001) %MON advcfl_vvel_max              =   2.3874218254629E-02
(PID.TID 0000.0001) %MON advcfl_wvel_max              =   2.7951387818799E-02
(PID.TID 0000.0001) %MON advcfl_W_hf_max              =   3.1942423314888E-02
(PID.TID 0000.0001) %MON pe_b_mean                    =   5.1694033686255E-04
(PID.TID 0000.0001) %MON ke_max                       =   1.3286457544687E-02
(PID.TID 0000.0001) %MON ke_mean                      =   1.1422403803241E-04
(PID.TID 0000.0001) %MON ke_vol                       =   1.3226782436723E+18
(PID.TID 0000.0001) %MON vort_r_min                   =  -3.5221580817869E-07
(PID.TID 0000.0001) %MON vort_r_max                   =   3.6504321773456E-07
(PID.TID 0000.0001) %MON vort_a_mean                  =  -2.5274807005068E-05
(PID.TID 0000.0001) %MON vort_a_sd                    =   7.3604724635983E-05
(PID.TID 0000.0001) %MON vort_p_mean                  =  -3.1845655305079E-05
(PID.TID 0000.0001) %MON vort_p_sd                    =   1.3162495349441E-04
(PID.TID 0000.0001) %MON surfExpan_theta_mean         =   1.6397106252475E-07
(PID.TID 0000.0001) %MON surfExpan_salt_mean          =  -1.0315621442012E-08
(PID.TID 0000.0001) // =======================================================
(PID.TID 0000.0001) // End MONITOR dynamic field statistics
(PID.TID 0000.0001) // =======================================================
(PID.TID 0000.0001) // =======================================================
(PID.TID 0000.0001) // Field Current uVel   at iteration         90
(PID.TID 0000.0001) // CMIN =         -1.314102559634697E-01
(PID.TID 0000.0001) // CMAX =          1.527095536208639E-01
(PID.TID 0000.0001) // CINT =          1.052295591053088E-02
(PID.TID 0000.0001) // SYMBOLS (CMIN->CMAX): -abcdefghijklmnopqrstuvwxyz+
(PID.TID 0000.0001) //                  0.0: .
(PID.TID 0000.0001) // RANGE I (Lo:Hi:Step):(     1:    90:     1)
(PID.TID 0000.0001) // RANGE J (Lo:Hi:Step):(    40:     1:    -1)
(PID.TID 0000.0001) // RANGE K (Lo:Hi:Step):(   1:   1:   1)
(PID.TID 0000.0001) // =======================================================
(PID.TID 0000.0001) K =   1
(PID.TID 0000.0001)                I=10      I=20      I=30      I=40      I=50      I=60      I=70      I=80      I=90
(PID.TID 0000.0001) |--J--|123456789|123456789|123456789|123456789|123456789|123456789|123456789|123456789|123456789|
(PID.TID 0000.0001)     40 lllll..llllllmmlllm...................................................................llll
(PID.TID 0000.0001)     39 mmnmmmmllllllm....m......................................................mll.........kkkkl
(PID.TID 0000.0001)     38 mnnnmmmmmmmmm............................................................lmll.......kjkklm
(PID.TID 0000.0001)     37 nnn...................................................................l....kl....kkkl..mnn
(PID.TID 0000.0001)     36 on..........................................kll.....................llmmmmlkjk..jkkllmmnno
(PID.TID 0000.0001)     35 nm..................................lll...llklll....klll............ll.....lllljjlmmmmmoon
(PID.TID 0000.0001)     34 ....................................lll..llmmmmm..mkkllml...................nnmmnnnnnnmm..
(PID.TID 0000.0001)     33 .....................................mlllmnnnnnnmmmmnnnnnml..................onooponnmljk.
(PID.TID 0000.0001)     32 .....................................llmmmnooppooooopppponm.................ppppqppomlkkm.
(PID.TID 0000.0001)     31 .....................................noppppppqqqqqqqrqqqpon...............nststtsrqpnnmm..
(PID.TID 0000.0001)     30 ....................................rttuutttsrrrrrrqqqpoonm.............prtttttttsqpoonn..
(PID.TID 0000.0001)     29 ..................................osuuuttssrrqpppoonnmmlllml............rrrqppoopponnnmm..
(PID.TID 0000.0001)     28 ................................oqqqpppoonnmmnnmlllllkkkklkll..........pqomlllllmmmmllll..
(PID.TID 0000.0001)     27 ...............m...............qrqonnmmmnnmmmmmllllmmllkkkjjjk....mmn..oonnnmmmmllllkk....
(PID.TID 0000.0001)     26 ...............mn............jloomkjjkklllllkkjjkkkkkjjiiiihiklm..mmmmoonnnnmllkkkjjih....
(PID.TID 0000.0001)     25 ...............onm....mm....kiijlihgghhhgghggffggghhhgggghhijlmmm....kkkjkklkjjjkkjiii....
(PID.TID 0000.0001)     24 .............nqqpnl..nnn....mm..mlighhggghihhhijjjjjjjkllmmnmmmmmmml..llklmnnnnnonoonn....
(PID.TID 0000.0001)     23 .............opnnml..llm....nm...kjiiiiijjjkkklmmllllnoqqqqponmllmlml.....nnmnmnnoppqo....
(PID.TID 0000.0001)     22 n............jhefedehghk....l..jghhhgffgggfghghijiijkloqrqrponmlklkkjj.......mjgggknppqpoo
(PID.TID 0000.0001)     21 noo.........hgfddb-bcfgkk......lhkkjhgffggfeffffgfgghikmnmmklmmnnmlkjk.........fbbfjllnqqp
(PID.TID 0000.0001)     20 lmm........kikkkjifghklmn.........mlmmlkkllkkjjiihhggghiiggfhijlkjiihj..........gceghhikkk
(PID.TID 0000.0001)     19 jlm........kiikllmkjkmllmnm....jm......oopqqpoonmlkjiijjhhhggfghhggggi............jhhhhihi
(PID.TID 0000.0001)     18 klm........kgegihjjkkklkklkkjigil....lnmnnnoonmlkkjkjijjiiijiijjhhiiiij...........mkkjjjii
(PID.TID 0000.0001)     17 jkl..........feefhfhigijjiiiiii......kjjjjjkkjjjihhihhhihhhiiijjiijjkkk..........mljiiiiij
(PID.TID 0000.0001)     16 ggh.......o..lhgggghhiiiiijkkk........kjjjjjkkkkjjjjjjjihhhihhiihhiijijk.........mljhggggg
(PID.TID 0000.0001)     15 edei.....mm..onnmkmmmnmmmllll..........llmmmmnnooonnnnmllkkkkjkjjjiiihghk.......lnnlkjihgg
(PID.TID 0000.0001)     14 hgfh.....mlllmnonmoonnmmnmmll..........mlmnnoooppppppoonnnnmmllkkkkjjjiij......klmmmlkjjii
(PID.TID 0000.0001)     13 jjih.....mljjkkkllmmmlklmmlll..........mmmnnooooooonnnnooooonnmlkllmlllkl.....kklllllllkkk
(PID.TID 0000.0001)     12 nmljjjilmoonmmmmmmmmmmmnonmmlmmmml.....nnnnnnonnnnnmmmnnooopppnmmmnnnmml......mooppooooooo
(PID.TID 0000.0001)     11 srqpommprvwvvvussssrrrrsrqqqppopomm...mnonm..ooonnnnnnnnnoopppooooppponl.....mpstuuttttsss
(PID.TID 0000.0001)     10 utssssuvwxz+++zyxyyxvuuvuttssrrqqonm..noonm..oponmmnnnnnmmnooooppppppoon...nnprtuvvwwwvvvv
(PID.TID 0000.0001)      9 uttttuvvvwwvuvvvuuwwvuuuuuutsssrrqpooooonn..ppoonnnnnnnoonnnnoooooonnnnm..noopqrstuuvvvvvv
(PID.TID 0000.0001)      8 ttuvutssttsrssrrrqqrtuutttuuttstttttttssqpqrqqppqqqqqqqqqqqpppppppooooon..nnmoppqrssttuuut
(PID.TID 0000.0001)      7 rstsrrrrrrrrrrqqrqqpqrrrrrsssssstuuvvvvvvvvtsrrrssttuuuuttsrrrrrrrrrrrrssrrqqqqppqqqqrrrrr
(PID.TID 0000.0001)      6 poooooppqqqqpppppqqponnoopppqrrssssssstuvwwvutttuuuuvwwvvtssssssstttttuuvwvwwusqqppooopppp
(PID.TID 0000.0001)      5 mmllmmnnnnnnnmmmnoonmmmmmmmmnoooopppppqrstuuuuttuuuttsrrrrrrsssssssttttuttsssqponnnnnnnnnm
(PID.TID 0000.0001)      4 kkkkkklllllllllllmmmllllklllllllmmmmnnnnnooppqqqqqpoonmmnoppqqqqqqqqqqppon...lmmllllllllkk
(PID.TID 0000.0001)      3 kkkkklllll.............................llmlllmmmmlllkkklllmmmnnnnnmmmmmmm...lllllllllllkkk
(PID.TID 0000.0001)      2 ...........................................lllllllllkkkkllllllll...lll......lllllllllll...
(PID.TID 0000.0001)      1 ..........................................................................................
(PID.TID 0000.0001) // =======================================================
(PID.TID 0000.0001) // END OF FIELD                                          =
(PID.TID 0000.0001) // =======================================================
(PID.TID 0000.0001) 
(PID.TID 0000.0001) // =======================================================
(PID.TID 0000.0001) // Field Current vVel   at iteration         90
(PID.TID 0000.0001) // CMIN =         -7.176848201871407E-02
(PID.TID 0000.0001) // CMAX =          1.228831140650351E-01
(PID.TID 0000.0001) // CINT =          7.209318373472192E-03
(PID.TID 0000.0001) // SYMBOLS (CMIN->CMAX): -abcdefghijklmnopqrstuvwxyz+
(PID.TID 0000.0001) //                  0.0: .
(PID.TID 0000.0001) // RANGE I (Lo:Hi:Step):(     1:    90:     1)
(PID.TID 0000.0001) // RANGE J (Lo:Hi:Step):(    40:     1:    -1)
(PID.TID 0000.0001) // RANGE K (Lo:Hi:Step):(   1:   1:   1)
(PID.TID 0000.0001) // =======================================================
(PID.TID 0000.0001) K =   1
(PID.TID 0000.0001)                I=10      I=20      I=30      I=40      I=50      I=60      I=70      I=80      I=90
(PID.TID 0000.0001) |--J--|123456789|123456789|123456789|123456789|123456789|123456789|123456789|123456789|123456789|
(PID.TID 0000.0001)     40 iknol.iijjjjkj...jj..................................................................ihhih
(PID.TID 0000.0001)     39 jklmljjjjjjjk...........................................................jijj........giiijj
(PID.TID 0000.0001)     38 kmm.......................................................................iii......if.llkj
(PID.TID 0000.0001)     37 ln...................................................................jj...iih...ejomj.kljj
(PID.TID 0000.0001)     36 kk.........................................lllk....................jjj....hghh.ddknllkjlki
(PID.TID 0000.0001)     35 ...................................jjkk..kkkllkk...fgkmm...................fhhhhjllkkkmn..
(PID.TID 0000.0001)     34 ....................................jjj.jjjjjjji.gfggikkk...................geghikkkjikl..
(PID.TID 0000.0001)     33 ....................................jhhijjihhhgffedeffgghjj.................lcfhhhhhgeeik.
(PID.TID 0000.0001)     32 ....................................jhgghhgfeecccccdeeeffhi................qlceffeedddej..
(PID.TID 0000.0001)     31 ....................................mjhggggeeedddeefgghhgfh..............kljhggfffffffhk..
(PID.TID 0000.0001)     30 ...................................nokiijkjhhiiiiihijkkjhff............oqmmjhhhghhhhhijk..
(PID.TID 0000.0001)     29 .................................onnmjjjllkjjklkkjjklkjjigff...........pokjhhhhiiihiijlk..
(PID.TID 0000.0001)     28 ...............................opmljiiiijjihhijklllkkkjiiihgg.........klihggffgikkjkjj....
(PID.TID 0000.0001)     27 ..............ij..............qqnkjjjkkklkiijkkmnonnnmllkjihgh...klmn.lkiggghhjlmmllki....
(PID.TID 0000.0001)     26 ..............jjk...........gjoplkkllnoponlmnoopponmnnmlljiihhij....nmkjkjjkkkllmlkjhg....
(PID.TID 0000.0001)     25 ..............mlkj...llk...gej.ohhkmmopponmlmmmnnmlkkkkjjiiijjjii....llllihhhhhiiihggg....
(PID.TID 0000.0001)     24 ............nqstqnn.nool...kjl..gfjklnnoooooopooppomlmmmmnnonmmkijjk.....nmlmmopppoolj....
(PID.TID 0000.0001)     23 ............uyzyuqr.npqm...kl...ehostuvvvvxxxxxyyyxvuvwxyywwusqonnnnl.......stwyzzyvrj....
(PID.TID 0000.0001)     22 i...........sxywsnmijnqq......idelsxz++ywuuvwwvvvvvttttuuuttrponllmmjf........quxzywtqnkji
(PID.TID 0000.0001)     21 hij........mnppnkihggikke......b.knswxwtpnmmmmmmmmllllmmnnnmljiiijkjhf.........mpvspolkkji
(PID.TID 0000.0001)     20 fil.......lmnmjfefefffedc......-......mmllmlkkkkjihihgggfddcccabcdefff...........snhfecddd
(PID.TID 0000.0001)     19 dfi.......mntsnjiiiiikiffkl...ghk.....nonnooooonmlklljiifeeeca-aaaaceh...........nmhecbabd
(PID.TID 0000.0001)     18 hhi.......m.uvpomlkkklljiklkige.....llomlmnonnnnnnmnnnnmlkkljihgeddegij..........npmljiggh
(PID.TID 0000.0001)     17 nnl.......m.mpkihjhhhfhhgfgggh.......jihhhijjiihiijjkkkkkjkkkklkjhhjlmk.........ikmmmnmlmm
(PID.TID 0000.0001)     16 klm......hl.ghffgeefcceffffeg.........gedfggghhggfghijiiiikjjjkjihijmnnk........fhiiikkjjk
(PID.TID 0000.0001)     15 iiki....ikl.hijjifhjhefhihgef.........gefgggijjihhiijkjijkkjjllkjijjkkllj......ghklkkllkkj
(PID.TID 0000.0001)     14 kklk....hhljhjllkijljhhklkjhg.........gehiiiikkjjjjjjjjjjjjijlkjjjjjjjkkj.....efhklkkllllk
(PID.TID 0000.0001)     13 kkll....aeigfgijjhhihhhjlkjji.........gehijihiiiiihhhhhhhggghihikkjjjjll.....fcffhihhiikkk
(PID.TID 0000.0001)     12 lllklgbcbfjighkllkkkiijlmmlkjihijj....ggijj.hhiiiigghhhihgghhggilmkkklml.....ffgghihhiijkl
(PID.TID 0000.0001)     11 pooomkjjjloomlnpqqpppoppqqqpnllkklk..hhjjkk.ijjjkkjijjjlllklkiilpponmmmk....himmlkllllmnpq
(PID.TID 0000.0001)     10 rqrsrpnnpsttrqpruurqrstssssrqpnnmmoo.kkllj..nmkklmmmmmlmoppomlmprsqponmk..lomorrpooonnprss
(PID.TID 0000.0001)      9 ppqssqnmpstssronuyqmoqrsrrqrqpnmmlnqpmllll.rrollllllmmmnnoponmmorrpponjg.mppqrtrpoppnmprsr
(PID.TID 0000.0001)      8 oopoonmlmopqpomkoxvoonopppoonnmllkmpolihjmsupnmmmlkkkllmmmmmlklmoonnmlgf.ppqtttronommmnoqq
(PID.TID 0000.0001)      7 ponlllmmmmnonmlkkouspnmnnnmmmmmmllnpnkighkoqponnnnmllkjklkklkkllmmmlkkkjnpoqttrpnnnlllmnop
(PID.TID 0000.0001)      6 mmkkklmmmllllkjjklnonmllkjjkllllkklnmlkjjllmmnooopppomkjihiklllllmmlkklnoppqpnonllmlklmmmm
(PID.TID 0000.0001)      5 jjiiijjkkjiiiihhijjjjjiggghhiiihhiijkkkkklkjjlnooooonlkjiijkllkkllmlllmmlm..ljllkkkkkkkkkk
(PID.TID 0000.0001)      4 feeffeeefg............................ihijjijklmmmllkjjjjjjjkjjijjkkjjiji...kkkjjjjjjiihgg
(PID.TID 0000.0001)      3 ..........................................iiiiiijiiihhhhiiihhhhh..jihi.....jlljiiiiiihh...
(PID.TID 0000.0001)      2 ..........................................................................................
(PID.TID 0000.0001)      1 ..........................................................................................
(PID.TID 0000.0001) // =======================================================
(PID.TID 0000.0001) // END OF FIELD                                          =
(PID.TID 0000.0001) // =======================================================
(PID.TID 0000.0001) 
(PID.TID 0000.0001) // =======================================================
(PID.TID 0000.0001) // Field Current theta  at iteration         90
(PID.TID 0000.0001) // CMIN =         -1.933031417315508E+00
(PID.TID 0000.0001) // CMAX =          3.121500018337993E+01
(PID.TID 0000.0001) // CINT =          1.227704874099831E+00
(PID.TID 0000.0001) // SYMBOLS (CMIN->CMAX): -abcdefghijklmnopqrstuvwxyz+
(PID.TID 0000.0001) //                  0.0: .
(PID.TID 0000.0001) // RANGE I (Lo:Hi:Step):(     1:    90:     1)
(PID.TID 0000.0001) // RANGE J (Lo:Hi:Step):(    40:     1:    -1)
(PID.TID 0000.0001) // RANGE K (Lo:Hi:Step):(   1:   1:   1)
(PID.TID 0000.0001) // =======================================================
(PID.TID 0000.0001) K =   1
(PID.TID 0000.0001)                I=10      I=20      I=30      I=40      I=50      I=60      I=70      I=80      I=90
(PID.TID 0000.0001) |--J--|123456789|123456789|123456789|123456789|123456789|123456789|123456789|123456789|123456789|
(PID.TID 0000.0001)     40 -bbccb--------abcddbbbbbbbbbbbbbbbbbbbbbbbbbbbbbbbbbbbbbbbbbbbbbbbbbbbbbbbbbbbbbbbbbbaa---
(PID.TID 0000.0001)     39 bbccccbbaa----bbbddbbbbbbbbbbbbbbbbbbbbbbbbbbbbbbbbbbbbbbbbbbbbbbbbbbbbb----bbbbbbbbaa-aaa
(PID.TID 0000.0001)     38 deeeeecbcbaa-bbbbbbbbbbbbbbbbbbbbbbbbbbbbbbbbbbbbbbbbbbbbbbbbbbbbbbbbbbb-----bbbbbba--abcc
(PID.TID 0000.0001)     37 efgbbbbbbbbbbbbbbbbbbbbbbbbbbbbbbbbbbbbbbbbbbbbbbbbbbbbbbbbbbbbbbbbbbbbbbb--abbbbaeeebcdde
(PID.TID 0000.0001)     36 ggbbbbbbbbbbbbbbbbbbbbbbbbbbbbbbbbbbbbbbbbbba--bbbbbbbbbbbbbbbbbbbbcccbbaaabacbceffghhhggg
(PID.TID 0000.0001)     35 ffbbbbbbbbbbbbbbbbbbbbbbbbbbbbbbbbb----bbabcccb-bbbddeefbbbbbbbbbbbbbbbbbbbcddddeffhhiiihg
(PID.TID 0000.0001)     34 bbbbbbbbbbbbbbbbbbbbbbbbbbbbbbbbbbb----bacccccccbccddefffbbbbbbbbbbbbbbbbbbbabdeefghiiiibb
(PID.TID 0000.0001)     33 bbbbbbbbbbbbbbbbbbbbbbbbbbbbbbbbbbbb--abbcccccdddeeeefffgghbbbbbbbbbbbbbbbbbaabfhijjjjjjjb
(PID.TID 0000.0001)     32 bbbbbbbbbbbbbbbbbbbbbbbbbbbbbbbbbbbb-abbccddddeefffgggghhhibbbbbbbbbbbbbbbbedb-ijklllkkkjb
(PID.TID 0000.0001)     31 bbbbbbbbbbbbbbbbbbbbbbbbbbbbbbbbbbbbdeefgggghihhhhhhijjjjjjbbbbbbbbbbbbbbhilkgjlmmmmmlllbb
(PID.TID 0000.0001)     30 bbbbbbbbbbbbbbbbbbbbbbbbbbbbbbbbbbbkkjjjjkkkkkkkkkkkllmmmllbbbbbbbbbbbbmmmoooooooooonnnnbb
(PID.TID 0000.0001)     29 bbbbbbbbbbbbbbbbbbbbbbbbbbbbbbbbbnnnnnmmmnnmmnnnnnnnnooonmmmbbbbbbbbbbbopqqppppppppooooobb
(PID.TID 0000.0001)     28 bbbbbbbbbbbbbbbbbbbbbbbbbbbbbbbmopppppoopppppppppppppqqpponnnbbbbbbbbbqrrrqqrqqqqqppppppbb
(PID.TID 0000.0001)     27 bbbbbbbbbbbbbbuubbbbbbbbbbbbbbqqrrrrrrrrrsrrrrrrsssrrrrqqqpoopbbbrrrsbstttsstssssrrrqqbbbb
(PID.TID 0000.0001)     26 bbbbbbbbbbbbbbuttbbbbbbbbbbbsstttttuuuuuuuutttttttttsssrrrqppqsubstuvuuuuuuuuttttsrrqqbbbb
(PID.TID 0000.0001)     25 bbbbbbbbbbbbbbuuvvbbbwvwbbbuuvvvvvvwwwvvvvvvuuuuuuuutttsssrrsstvwbbbvvvvvuuuuuuttsrqqqbbbb
(PID.TID 0000.0001)     24 bbbbbbbbbbbbwvvwwxybwwxxbbbwwwbwwwwxwwwwwwvvvvvvvvuuvvvvvvvvvvvwwvvwbwvvvuuuuuuuttttttbbbb
(PID.TID 0000.0001)     23 bbbbbbbbbbbbwwwxxyzbwxxxbbbxwwbbwxxxxxxxxwwwwwwwwwwwwwwwwwwwwwwwwwwxwbbbbwvvvvvvvvvvwwbbbb
(PID.TID 0000.0001)     22 vbbbbbbbbbbbwwwxxyyyxxyybbbxxbzyxxxyyyyyyyxxxxxxxxxxxxxwwwwwwwwwwwwvvvbbbbbbxwwwwwxxxyyyxw
(PID.TID 0000.0001)     21 vvvbbbbbbbbxxxxxxxxxyyzz+bbbbbzyzzzzzzzzzzyyyyyyyyyyyyxxxxxxxxxxxxwvvvbbbbbbbbxxxxyyyyyyxw
(PID.TID 0000.0001)     20 vvvbbbbbbbyyyyyyyyyyzzzz+bbbbbbzbzzzzz+zzzzzzzzzzzzyyyyxxxxxxxxxwxxwvvbbbbbbbbbyyyxxxxxxww
(PID.TID 0000.0001)     19 vvwbbbbbbbzzzyyyyyyyyyyyzzybbbzzzbbbbbz+zz++zzzzzzzzyyyxxxxxwwwvvwvvvubbbbbbbbbbbxxwwwwvvv
(PID.TID 0000.0001)     18 vuubbbbbbbzzyxxyyyyyyyyyyyzzzz+zzbbb++zzzz+zzzzzzzzzyyyyxxxxwwwvvvvuuutbbbbbbbbbbyxxwwvvvv
(PID.TID 0000.0001)     17 uutbbbbbbbzbyxxxxxxxxxxxyyyyyzzbbbbbyyyyzzzzzzzzyyyyyxxxxxxxwwwvuvvuttvbbbbbbbbbxxyxxvuvvv
(PID.TID 0000.0001)     16 ttsbbbbbbyzbxxxxwwwwwwwwwwxxyybbbbbbbxxxyyyyyyyyyyyyyyxxxxxxxwwvvvvuutstbbbbbbbbxyyxxwvvvu
(PID.TID 0000.0001)     15 tsrrbbbbwxxbwwwwwvvvvvvvuuvvxbbbbbbbbbvwwxxxxxxxxxxxxxxxxxyxxwvvvvuutsssrbbbbbbxxxxxxwwvvt
(PID.TID 0000.0001)     14 tsqqbbbbwxwvvwwvvwvvutuuttttubbbbbbbbbvvvvwwwwwwwwwwxxwwwxxxwwvvvvuutsssrbbbbbvwxxwxxwwwvu
(PID.TID 0000.0001)     13 utsqbbbbvwvvvvuuuvvuuuutsssssbbbbbbbbbuuuvvvvvvvvvuuvvvvvvwwwwvvuuuutssspbbbbuvwwwvwwwwvvu
(PID.TID 0000.0001)     12 sssrssqstuuttutssssssttrrrrrqqqrrqbbbbsttttttttsssssttttstuuutttssstssrrbbbbbtvvvutuuuttst
(PID.TID 0000.0001)     11 qpppqqrrrsrqqrrqqppopqqpppppppqqqqqbbssssssbrrrqqrrrrrrrrrrrqqqrqqqrrrqpbbbboqssssrrsrrqqq
(PID.TID 0000.0001)     10 mmlllmnoppoooponmmmnmmmmlmlllmnooooobqrqqqqbppqqqqqppppppppooopoonnoopoobbnppppoooonooooon
(PID.TID 0000.0001)      9 jjjiiijkkjjkkkkjjiijjjjiiiijiijkkmnmmnooopbnnnnoooooonooonmmmmmmmllllmmmbmmmnmmllllkkllkjj
(PID.TID 0000.0001)      8 fgggggghhggghiiihgghhhhggghhhhiijjjjjjkllmmllllllllllllllkkkjjjkkjjjjklkbkkkkjjjiiihhhhggf
(PID.TID 0000.0001)      7 eeeeeefffgfffggggfffffeeeefgggggghhgghiijjjjjjjkkjjiiiiihiiiiihhiiiiiiijiijiihhggfffffeeee
(PID.TID 0000.0001)      6 ccddeeeeeeeeeeeeeeeeeeeeeeeeddeeefeefggghhhhhhhhihhgffggfggfffffgggggghhhhhhggffeeeedddddd
(PID.TID 0000.0001)      5 ddddddddddeeeeeeeeddddddddddddeeeeeeeeeeffffffeeefedddeeeeeeeddeeeeefffeeeedeeddddddcccccc
(PID.TID 0000.0001)      4 cdddcccccccccccbbccccccbbbbbcccccbbbbcccccdddcccccccccccccccccdddcccdddddcbbbbabcccccccccc
(PID.TID 0000.0001)      3 cccbbbbaaabbbbbbbbbbbbbbbbbbbbbbbbbbbbbbaaaabbbbbbbbbbbbbbaabbbbbbaabbbbbbbbaaaaabbccbbbbb
(PID.TID 0000.0001)      2 bbbbbbbbbbbbbbbbbbbbbbbbbbbbbbbbbbbbbbbbbbaaabbbbbbbbaaaaaaaaaaabbaaaabbbbbaaaaaaabbbbbbbb
(PID.TID 0000.0001)      1 bbbbbbbbbbbbbbbbbbbbbbbbbbbbbbbbbbbbbbbbbbbbbbbbbbbbbbbbbbbbbbbbbbbbbbbbbbbbbbbbbbbbbbbbbb
(PID.TID 0000.0001) // =======================================================
(PID.TID 0000.0001) // END OF FIELD                                          =
(PID.TID 0000.0001) // =======================================================
(PID.TID 0000.0001) 
(PID.TID 0000.0001) // =======================================================
(PID.TID 0000.0001) // Field Current etaN   at iteration         90
(PID.TID 0000.0001) // CMIN =         -1.844146749227553E+00
(PID.TID 0000.0001) // CMAX =          9.144319029010286E-01
(PID.TID 0000.0001) // CINT =          1.021695797084660E-01
(PID.TID 0000.0001) // SYMBOLS (CMIN->CMAX): -abcdefghijklmnopqrstuvwxyz+
(PID.TID 0000.0001) //                  0.0: .
(PID.TID 0000.0001) // RANGE I (Lo:Hi:Step):(    -1:    92:     1)
(PID.TID 0000.0001) // RANGE J (Lo:Hi:Step):(    42:    -1:    -1)
(PID.TID 0000.0001) // RANGE K (Lo:Hi:Step):(   1:   1:   1)
(PID.TID 0000.0001) // =======================================================
(PID.TID 0000.0001) K =   1
(PID.TID 0000.0001)                I=8       I=18      I=28      I=38      I=48      I=58      I=68      I=78      I=88
(PID.TID 0000.0001) |--J--|101234567|901234567|901234567|901234567|901234567|901234567|901234567|901234567|901234567|9012
(PID.TID 0000.0001)     42 ............................................---aaaabbbbbccbbbbbbbb..dccc.....-a--aaaaaaaa.....
(PID.TID 0000.0001)     41 ..............................................................................................
(PID.TID 0000.0001)     40 kkjjjkk.lllllllllllll..................................................................kkkkkjj
(PID.TID 0000.0001)     39 kkjjjkklllkkkkll...ll.....................................................jjjj........lllkkkjj
(PID.TID 0000.0001)     38 kkkklllllllllkl...........................................................jjjjj......mkkkkkkkk
(PID.TID 0000.0001)     37 kkklm..................................................................kk...kjj...kkjkj.jkkkkl
(PID.TID 0000.0001)     36 llln.........................................pppp....................llklkkjijji.lihijklklllln
(PID.TID 0000.0001)     35 mnmm.................................opoo..pppppqq...sqrrr...........lll....kihhhhhiijjkllmnmm
(PID.TID 0000.0001)     34 .....................................poop.pppppppq.qpqppqrs..................jjihhhijkkllo....
(PID.TID 0000.0001)     33 n.....................................ppopppppppppqqpppqqrrst.................ljjjjkklmmmln...
(PID.TID 0000.0001)     32 o.....................................qppooppppqqqqqqqqrrrsss................hnlklmmnnnnnmo...
(PID.TID 0000.0001)     31 ......................................pppppqqqrrrrrrrrsssstst..............lmnnmmnnnnonnnm....
(PID.TID 0000.0001)     30 .....................................qrrrrrssssssssttttttuutt............knnopppqqpppooono....
(PID.TID 0000.0001)     29 ...................................tuuvvvuuuvuuuuuuuuuuuuuuuts...........npqrrrrqqqqppoooo....
(PID.TID 0000.0001)     28 .................................tvvwxxxxwwwwwwwvvvvvvvvvuuuuts.........qqrrrrrrqqqqppoooo....
(PID.TID 0000.0001)     27 ................ss..............vwxyyyyyyyxxxxxxwwwwwvvvvvuuutts...ssss.rsssssrrqqqqppoo......
(PID.TID 0000.0001)     26 ................sss...........yyyyyyyzzzzzzzyyxxxwwwwwwwvvuuuttttt.sssttttttsssrqqqqppoo......
(PID.TID 0000.0001)     25 ................tttt...vvv...zyxxzzyyyzzzzzyyyyxxwwwwwwwvvvuuuuuuuu...stttttsssrrqqqpppo......
(PID.TID 0000.0001)     24 ..............uuttuuv.vvvw...zyy.+zyyyyyyyyyyxxxxwwwwwwwvvvvvvuuuuuuuu.ttttssssrrrqqqppp......
(PID.TID 0000.0001)     23 ..............uuuuvvv.vvww...zyy..zyyyyyyyyyxxxxwwwwwwwwvvvvvvvuuuuuuuu....ssssrrrrqqqqr......
(PID.TID 0000.0001)     22 rrr...........uuuuuuvvvvvv...zz.zyyxxxxxxxxxxxwwwwwwwwwwwvvvvvvvuuuuuuuu......srrrrrrrrrrrrrr.
(PID.TID 0000.0001)     21 rrqqr........vvuuuuuuuuvvvw.....zyyyyyxxxwxxxwwwwwwwwwwwwvvvvvvvuuuuuttt........sssrrrrrrrrrqq
(PID.TID 0000.0001)     20 qqqqr.......wvvvuutuuuuuvvv......y.zyyyyxxxxxxxwwwwwwwwwvvvvuuuuuttuuttt.........sssrrrrrrqqqq
(PID.TID 0000.0001)     19 qqqqq.......wvvuuttuuuvvvvvvv...xxx.....yyyyyyyxxxxxxxwwvvvvuutttttttttt...........srrrqqqqqqq
(PID.TID 0000.0001)     18 pppqq.......wwwvuuuuvvvwvvvvvvwwxxx...zzyyyyyyyyyyxxxxwwwvvvvuuutttttttss..........tsrrqqppppq
(PID.TID 0000.0001)     17 qqppp.......x.ywvvvvvwwwwvvvvwwww.....yyyyyxxxxxxxxxxxxwwwwvvvvvuuuuttttt.........utssrrqqqqpp
(PID.TID 0000.0001)     16 rqqpp......zy.ywwwwwwwwvvvvvvvww.......yxxxxxxxxxxxxxxxxwwwwwwvvvuuuuutttt........ttssssrrrqqp
(PID.TID 0000.0001)     15 rrqqpp....xxw.wwwwwwwvvvwvvuuuv.........wxxxxxxxxxxxxxxxxxxxxwwwvvuuuuutssr......sttttttssrrqq
(PID.TID 0000.0001)     14 ssrqqo....wxwuwwwwwwwvuuvuuttst.........wwwwwwxwwwwwwwxxxxxxxxxwwvvvvuuttss.....rstttuutttssrq
(PID.TID 0000.0001)     13 tssrqp....vxwvwwvvvvvuuuvvutssr.........uwwwvvvvvvvvvvvvwwwwwwxwwwvvvuuttss....qssttttuuuutssr
(PID.TID 0000.0001)     12 tssrrqqnqsvwwvvvvuuuuuuuuutttsrrsssr....tuuuutuuuuutuuuuuuuvvvvvvvvuuuutts.....qssststtttttssr
(PID.TID 0000.0001)     11 srrrqqqrstuvvuuuuuuuutttttttssrrsssss..sttttt.sttttsttuuuuuuuuuuvvvuttttsr....oqqqrrrrsssssrrr
(PID.TID 0000.0001)     10 qppppooppqqqqpppqrrqqrrrrrrrrqqqrrrssr.rstttu.ssrsstttttuuutttttuuutssssss..rooponnooopqqqqppp
(PID.TID 0000.0001)      9 lllmmmlllmnmlkkkkllkkmnnnnnnoooopqqrsrrrrsss.tsqrssstttttuuutsssttsrrqqqqq.nonnmlkkkkklmmmlllm
(PID.TID 0000.0001)      8 ggghhhggghiiiihhhikhfhiijjjjjkkllmnoppppqrsstqpppqqrrrsssrrrrqqrrrrqqpppqt.pomlkigggggghhhgggh
(PID.TID 0000.0001)      7 ddccbccdeeeffeeeffgifeddeefffgghhiijjjijkmoponnnnnnnnnnnoonnnnnnooonnnnoopponmkigfedddddddddcc
(PID.TID 0000.0001)      6 baa--aabbcccccccddeeecccccccddeeeeeefeefghijkkkjjjjjiihhhiiijjjkkkkkkkkkkkkjjigfdccbbbbbbbbaa-
(PID.TID 0000.0001)      5 -----aaabbbbbbbbbcccccbbbabbbbbbbbcccccccdddeefggffeedcbccdefggggggggffgffedcb-aaaaaaaaaa-----
(PID.TID 0000.0001)      4 -----aaaaabbbbbbbbbbbbbbbbbbbbbbbbbbbbaaaabbbbbccbbaaaaabbcccdddddddddddcccd..-aa-------------
(PID.TID 0000.0001)      3 aaabbbbbbbbb............................aaaaaaaaaaaaaaaaabbbbbbbbbcccccccdc..aa---aaaaaaaaaaab
(PID.TID 0000.0001)      2 ............................................---aaaabbbbbccbbbbbbbb..dccc.....-a--aaaaaaaa.....
(PID.TID 0000.0001)      1 ..............................................................................................
(PID.TID 0000.0001)      0 kkjjjkk.lllllllllllll..................................................................kkkkkjj
(PID.TID 0000.0001)     -1 kkjjjkklllkkkkll...ll.....................................................jjjj........lllkkkjj
(PID.TID 0000.0001) // =======================================================
(PID.TID 0000.0001) // END OF FIELD                                          =
(PID.TID 0000.0001) // =======================================================
(PID.TID 0000.0001) 
(PID.TID 0000.0001)  MDS_WRITE_FIELD: it,rec,kS,kL,kH=      90     1  15   1  15 file=U.0000000090
(PID.TID 0000.0001)  MDS_WRITE_FIELD: it,rec,kS,kL,kH=      90     1  15   1  15 file=V.0000000090
(PID.TID 0000.0001)  MDS_WRITE_FIELD: it,rec,kS,kL,kH=      90     1  15   1  15 file=T.0000000090
(PID.TID 0000.0001)  MDS_WRITE_FIELD: it,rec,kS,kL,kH=      90     1  15   1  15 file=S.0000000090
(PID.TID 0000.0001)  MDS_WRITE_FIELD: it,rec,kS,kL,kH=      90     1   1   1   1 file=Eta.0000000090
(PID.TID 0000.0001)  MDS_WRITE_FIELD: it,rec,kS,kL,kH=      90     1  15   1  15 file=W.0000000090
(PID.TID 0000.0001)  MDS_WRITE_FIELD: it,rec,kS,kL,kH=      90     1  15   1  15 file=PH.0000000090
(PID.TID 0000.0001)  MDS_WRITE_FIELD: it,rec,kS,kL,kH=      90     1   1   1   1 file=PHL.0000000090
(PID.TID 0000.0001)  MDS_WRITE_FIELD: it,rec,kS,kL,kH=      90     1   1   1   1 file=ETAtave.0000000090
(PID.TID 0000.0001)  MDS_WRITE_FIELD: it,rec,kS,kL,kH=      90     1  15   1  15 file=Ttave.0000000090
(PID.TID 0000.0001)  MDS_WRITE_FIELD: it,rec,kS,kL,kH=      90     1  15   1  15 file=Stave.0000000090
(PID.TID 0000.0001)  MDS_WRITE_FIELD: it,rec,kS,kL,kH=      90     1  15   1  15 file=uVeltave.0000000090
(PID.TID 0000.0001)  MDS_WRITE_FIELD: it,rec,kS,kL,kH=      90     1  15   1  15 file=vVeltave.0000000090
(PID.TID 0000.0001)  MDS_WRITE_FIELD: it,rec,kS,kL,kH=      90     1  15   1  15 file=wVeltave.0000000090
(PID.TID 0000.0001)  MDS_WRITE_FIELD: it,rec,kS,kL,kH=      90     1   1   1   1 file=Eta2tave.0000000090
(PID.TID 0000.0001)  MDS_WRITE_FIELD: it,rec,kS,kL,kH=      90     1  15   1  15 file=UTtave.0000000090
(PID.TID 0000.0001)  MDS_WRITE_FIELD: it,rec,kS,kL,kH=      90     1  15   1  15 file=VTtave.0000000090
(PID.TID 0000.0001)  MDS_WRITE_FIELD: it,rec,kS,kL,kH=      90     1  15   1  15 file=WTtave.0000000090
(PID.TID 0000.0001)  MDS_WRITE_FIELD: it,rec,kS,kL,kH=      90     1  15   1  15 file=UStave.0000000090
(PID.TID 0000.0001)  MDS_WRITE_FIELD: it,rec,kS,kL,kH=      90     1  15   1  15 file=VStave.0000000090
(PID.TID 0000.0001)  MDS_WRITE_FIELD: it,rec,kS,kL,kH=      90     1  15   1  15 file=WStave.0000000090
(PID.TID 0000.0001)  MDS_WRITE_FIELD: it,rec,kS,kL,kH=      90     1  15   1  15 file=TTtave.0000000090
(PID.TID 0000.0001)  MDS_WRITE_FIELD: it,rec,kS,kL,kH=      90     1  15   1  15 file=UUtave.0000000090
(PID.TID 0000.0001)  MDS_WRITE_FIELD: it,rec,kS,kL,kH=      90     1  15   1  15 file=VVtave.0000000090
(PID.TID 0000.0001)  MDS_WRITE_FIELD: it,rec,kS,kL,kH=      90     1  15   1  15 file=UVtave.0000000090
(PID.TID 0000.0001)  MDS_WRITE_FIELD: it,rec,kS,kL,kH=      90     1  15   1  15 file=Tdiftave.0000000090
(PID.TID 0000.0001)  MDS_WRITE_FIELD: it,rec,kS,kL,kH=      90     1  15   1  15 file=PhHytave.0000000090
(PID.TID 0000.0001)  MDS_WRITE_FIELD: it,rec,kS,kL,kH=      90     1   1   1   1 file=PHLtave.0000000090
(PID.TID 0000.0001)  MDS_WRITE_FIELD: it,rec,kS,kL,kH=      90     1   1   1   1 file=uFluxtave.0000000090
(PID.TID 0000.0001)  MDS_WRITE_FIELD: it,rec,kS,kL,kH=      90     1   1   1   1 file=vFluxtave.0000000090
(PID.TID 0000.0001)  MDS_WRITE_FIELD: it,rec,kS,kL,kH=      90     1   1   1   1 file=tFluxtave.0000000090
(PID.TID 0000.0001)  MDS_WRITE_FIELD: it,rec,kS,kL,kH=      90     1   1   1   1 file=sFluxtave.0000000090
(PID.TID 0000.0001)  MDS_WRITE_FIELD: it,rec,kS,kL,kH=      90     1   1   1   1 file=PHL2tave.0000000090
(PID.TID 0000.0001)  MDS_WRITE_FIELD: it,rec,kS,kL,kH=      90     1  15   1  15 file=Convtave.0000000090
(PID.TID 0000.0001) // Time-average data written, t-step        90
(PID.TID 0000.0001) 
(PID.TID 0000.0001)  MDS_WRITE_FIELD: it,rec,kS,kL,kH=      90     1  15   1  15 file=GM_Kwx-T.0000000090
(PID.TID 0000.0001)  MDS_WRITE_FIELD: it,rec,kS,kL,kH=      90     1  15   1  15 file=GM_Kwy-T.0000000090
(PID.TID 0000.0001)  MDS_WRITE_FIELD: it,rec,kS,kL,kH=      90     1  15   1  15 file=GM_Kwz-T.0000000090
(PID.TID 0000.0001)  MDS_WRITE_FIELD: it,rec,kS,kL,kH=      90     1  15   1  15 file=pickup_cd.0000000090
(PID.TID 0000.0001)  MDS_WRITE_FIELD: it,rec,kS,kL,kH=      90     2  15   1  15 file=pickup_cd.0000000090
(PID.TID 0000.0001)  MDS_WRITE_FIELD: it,rec,kS,kL,kH=      90     3  15   1  15 file=pickup_cd.0000000090
(PID.TID 0000.0001)  MDS_WRITE_FIELD: it,rec,kS,kL,kH=      90     4  15   1  15 file=pickup_cd.0000000090
(PID.TID 0000.0001)  MDS_WRITE_FIELD: it,rec,kS,kL,kH=      90    61   1   1   1 file=pickup_cd.0000000090
(PID.TID 0000.0001)  MDS_WRITE_FIELD: it,rec,kS,kL,kH=      90    -1  15   1  15 file=pickup.0000000090
(PID.TID 0000.0001)  MDS_WRITE_FIELD: it,rec,kS,kL,kH=      90    -2  15   1  15 file=pickup.0000000090
(PID.TID 0000.0001)  MDS_WRITE_FIELD: it,rec,kS,kL,kH=      90    -3  15   1  15 file=pickup.0000000090
(PID.TID 0000.0001)  MDS_WRITE_FIELD: it,rec,kS,kL,kH=      90    -4  15   1  15 file=pickup.0000000090
(PID.TID 0000.0001)  MDS_WRITE_FIELD: it,rec,kS,kL,kH=      90    -5  15   1  15 file=pickup.0000000090
(PID.TID 0000.0001)  MDS_WRITE_FIELD: it,rec,kS,kL,kH=      90    -6  15   1  15 file=pickup.0000000090
(PID.TID 0000.0001)  MDS_WRITE_FIELD: it,rec,kS,kL,kH=      90    -7  15   1  15 file=pickup.0000000090
(PID.TID 0000.0001)  MDS_WRITE_FIELD: it,rec,kS,kL,kH=      90    -8  15   1  15 file=pickup.0000000090
(PID.TID 0000.0001)  MDS_WRITE_FIELD: it,rec,kS,kL,kH=      90  -121   1   1   1 file=pickup.0000000090
(PID.TID 0000.0001)  MDS_WRITE_FIELD: it,rec,kS,kL,kH=      90  -122   1   1   1 file=pickup.0000000090
(PID.TID 0000.0001)  MDS_WRITE_FIELD: it,rec,kS,kL,kH=      90  -123   1   1   1 file=pickup.0000000090
(PID.TID 0000.0001) %CHECKPOINT        90 0000000090
(PID.TID 0000.0001)  MDS_WRITE_FIELD: it,rec,kS,kL,kH=      90     1   1   1   1 file=ETAN_forecast.0000000090
(PID.TID 0000.0001)  MDS_WRITE_FIELD: it,rec,kS,kL,kH=      90     1  15   1  15 file=THETA_forecast.0000000090
(PID.TID 0000.0001)  MDS_WRITE_FIELD: it,rec,kS,kL,kH=      90     1  15   1  15 file=SALT_forecast.0000000090
(PID.TID 0000.0001)  MDS_WRITE_FIELD: it,rec,kS,kL,kH=      90     1  15   1  15 file=UVEL_forecast.0000000090
(PID.TID 0000.0001)  MDS_WRITE_FIELD: it,rec,kS,kL,kH=      90     1  15   1  15 file=VVEL_forecast.0000000090
(PID.TID 0000.0001)  MDS_WRITE_FIELD: it,rec,kS,kL,kH=      90     1   1   1   1 file=ETAN_analysis.0000000090
(PID.TID 0000.0001)  MDS_WRITE_FIELD: it,rec,kS,kL,kH=      90     1  15   1  15 file=THETA_analysis.0000000090
(PID.TID 0000.0001)  MDS_WRITE_FIELD: it,rec,kS,kL,kH=      90     1  15   1  15 file=SALT_analysis.0000000090
(PID.TID 0000.0001)  MDS_WRITE_FIELD: it,rec,kS,kL,kH=      90     1  15   1  15 file=UVEL_analysis.0000000090
(PID.TID 0000.0001)  MDS_WRITE_FIELD: it,rec,kS,kL,kH=      90     1  15   1  15 file=VVEL_analysis.0000000090
 EXTERNAL_FIELDS_LOAD,        90 : iP,iLd,i0,i1=    3    4    3    4 ; Wght=  0.5000000000  0.5000000000
 EXTERNAL_FIELDS_LOAD: (fu0,1),fu,fv= -2.7199E-02 -3.7252E-02 -3.2225E-02 -1.7897E-02
 EXTERNAL_FIELDS_LOAD: SST,SSS,Q,E-P= -7.4284E-02  3.4574E+01  1.5975E+02  8.4249E-06
DEBUG_STATS_RL:          Uvel (THERMODYNAMICS)  min= -1.31410255963470E-01
DEBUG_STATS_RL:          Uvel (THERMODYNAMICS)  max=  1.52709553620864E-01
DEBUG_STATS_RL:          Uvel (THERMODYNAMICS) mean=  6.18064321925615E-03
DEBUG_STATS_RL:          Uvel (THERMODYNAMICS) S.D.=  2.17868160466412E-02
DEBUG_STATS_RL:          Vvel (THERMODYNAMICS)  min= -7.83034175904420E-02
DEBUG_STATS_RL:          Vvel (THERMODYNAMICS)  max=  1.22883114065035E-01
DEBUG_STATS_RL:          Vvel (THERMODYNAMICS) mean=  8.80800893264268E-04
DEBUG_STATS_RL:          Vvel (THERMODYNAMICS) S.D.=  1.25539413339340E-02
DEBUG_STATS_RL:          Wvel (THERMODYNAMICS)  min= -5.35858415991491E-05
DEBUG_STATS_RL:          Wvel (THERMODYNAMICS)  max=  1.21217049449148E-04
DEBUG_STATS_RL:          Wvel (THERMODYNAMICS) mean= -4.36540511051346E-08
DEBUG_STATS_RL:          Wvel (THERMODYNAMICS) S.D.=  7.99464502545721E-06
DEBUG_STATS_RL:         Theta (THERMODYNAMICS)  min= -1.93195887774340E+00
DEBUG_STATS_RL:         Theta (THERMODYNAMICS)  max=  3.12292809896743E+01
DEBUG_STATS_RL:         Theta (THERMODYNAMICS) mean=  3.22037258149601E+00
DEBUG_STATS_RL:         Theta (THERMODYNAMICS) S.D.=  5.88884484918112E+00
DEBUG_STATS_RL:          Salt (THERMODYNAMICS)  min= -3.29597460435593E-17
DEBUG_STATS_RL:          Salt (THERMODYNAMICS)  max=  3.74700580140318E+01
DEBUG_STATS_RL:          Salt (THERMODYNAMICS) mean=  1.88447409821643E+01
DEBUG_STATS_RL:          Salt (THERMODYNAMICS) S.D.=  1.73003006245296E+01
DEBUG_STATS_RL:         GtNm1 (THERMODYNAMICS)  min= -3.17939447111634E-06
DEBUG_STATS_RL:         GtNm1 (THERMODYNAMICS)  max=  1.90499011367741E-06
DEBUG_STATS_RL:         GtNm1 (THERMODYNAMICS) mean= -1.98866712685474E-09
DEBUG_STATS_RL:         GtNm1 (THERMODYNAMICS) S.D.=  1.30060157409811E-07
DEBUG_STATS_RL:         GsNm1 (THERMODYNAMICS)  min= -3.82897252073381E-07
DEBUG_STATS_RL:         GsNm1 (THERMODYNAMICS)  max=  2.62107479632588E-07
DEBUG_STATS_RL:         GsNm1 (THERMODYNAMICS) mean= -1.94142369924645E-10
DEBUG_STATS_RL:         GsNm1 (THERMODYNAMICS) S.D.=  1.28102597443255E-08
DEBUG_STATS_RL:                EtaN (DYNAMICS)  min= -1.84414674922755E+00
DEBUG_STATS_RL:                EtaN (DYNAMICS)  max=  9.14431902901029E-01
DEBUG_STATS_RL:                EtaN (DYNAMICS) mean= -1.92000376467980E-01
DEBUG_STATS_RL:                EtaN (DYNAMICS) S.D.=  7.37657177569538E-01
DEBUG_STATS_RL:                Uvel (DYNAMICS)  min= -1.31410255963470E-01
DEBUG_STATS_RL:                Uvel (DYNAMICS)  max=  1.52709553620864E-01
DEBUG_STATS_RL:                Uvel (DYNAMICS) mean=  6.18064321925615E-03
DEBUG_STATS_RL:                Uvel (DYNAMICS) S.D.=  2.17868160466412E-02
DEBUG_STATS_RL:                Vvel (DYNAMICS)  min= -7.83034175904420E-02
DEBUG_STATS_RL:                Vvel (DYNAMICS)  max=  1.22883114065035E-01
DEBUG_STATS_RL:                Vvel (DYNAMICS) mean=  8.80800893264268E-04
DEBUG_STATS_RL:                Vvel (DYNAMICS) S.D.=  1.25539413339340E-02
DEBUG_STATS_RL:                Wvel (DYNAMICS)  min= -5.35858415991491E-05
DEBUG_STATS_RL:                Wvel (DYNAMICS)  max=  1.21217049449148E-04
DEBUG_STATS_RL:                Wvel (DYNAMICS) mean= -4.36540511051346E-08
DEBUG_STATS_RL:                Wvel (DYNAMICS) S.D.=  7.99464502545721E-06
DEBUG_STATS_RL:               Theta (DYNAMICS)  min= -1.93195887774340E+00
DEBUG_STATS_RL:               Theta (DYNAMICS)  max=  3.12292809896743E+01
DEBUG_STATS_RL:               Theta (DYNAMICS) mean=  3.22037258149601E+00
DEBUG_STATS_RL:               Theta (DYNAMICS) S.D.=  5.88884484918112E+00
DEBUG_STATS_RL:                Salt (DYNAMICS)  min= -3.29597460435593E-17
DEBUG_STATS_RL:                Salt (DYNAMICS)  max=  3.74700580140318E+01
DEBUG_STATS_RL:                Salt (DYNAMICS) mean=  1.88447409821643E+01
DEBUG_STATS_RL:                Salt (DYNAMICS) S.D.=  1.73003006245296E+01
DEBUG_STATS_RL:                  Gu (DYNAMICS)  min= -1.30381859362378E-01
DEBUG_STATS_RL:                  Gu (DYNAMICS)  max=  1.48629464585369E-01
DEBUG_STATS_RL:                  Gu (DYNAMICS) mean=  6.13730994532714E-03
DEBUG_STATS_RL:                  Gu (DYNAMICS) S.D.=  2.22032906879158E-02
DEBUG_STATS_RL:                  Gv (DYNAMICS)  min= -7.66136630999081E-02
DEBUG_STATS_RL:                  Gv (DYNAMICS)  max=  1.23080203423510E-01
DEBUG_STATS_RL:                  Gv (DYNAMICS) mean=  3.54029751053908E-03
DEBUG_STATS_RL:                  Gv (DYNAMICS) S.D.=  1.41617485054980E-02
DEBUG_STATS_RL:               GuNm1 (DYNAMICS)  min= -9.51560123273314E-06
DEBUG_STATS_RL:               GuNm1 (DYNAMICS)  max=  9.74233773671723E-06
DEBUG_STATS_RL:               GuNm1 (DYNAMICS) mean=  1.21447310846501E-08
DEBUG_STATS_RL:               GuNm1 (DYNAMICS) S.D.=  1.22461834945713E-06
DEBUG_STATS_RL:               GvNm1 (DYNAMICS)  min= -9.34394897560026E-06
DEBUG_STATS_RL:               GvNm1 (DYNAMICS)  max=  1.51915985874488E-05
DEBUG_STATS_RL:               GvNm1 (DYNAMICS) mean=  7.38481720981616E-07
DEBUG_STATS_RL:               GvNm1 (DYNAMICS) S.D.=  2.60220086704843E-06
DEBUG_STATS_RL:               GtNm1 (DYNAMICS)  min= -3.17939447111634E-06
DEBUG_STATS_RL:               GtNm1 (DYNAMICS)  max=  1.90499011367741E-06
DEBUG_STATS_RL:               GtNm1 (DYNAMICS) mean= -1.98866712685474E-09
DEBUG_STATS_RL:               GtNm1 (DYNAMICS) S.D.=  1.30060157409811E-07
DEBUG_STATS_RL:               GsNm1 (DYNAMICS)  min= -3.82897252073381E-07
DEBUG_STATS_RL:               GsNm1 (DYNAMICS)  max=  2.62107479632588E-07
DEBUG_STATS_RL:               GsNm1 (DYNAMICS) mean= -1.94142369924645E-10
DEBUG_STATS_RL:               GsNm1 (DYNAMICS) S.D.=  1.28102597443255E-08
DEBUG_STATS_RL:    cg2d_b (SOLVE_FOR_PRESSURE)  min= -2.70372241328531E+04
DEBUG_STATS_RL:    cg2d_b (SOLVE_FOR_PRESSURE)  max=  2.88873169882347E+04
DEBUG_STATS_RL:    cg2d_b (SOLVE_FOR_PRESSURE) mean=  5.55116176968388E+00
DEBUG_STATS_RL:    cg2d_b (SOLVE_FOR_PRESSURE) S.D.=  3.96317657450717E+03
 cg2d: Sum(rhs),rhsMax =   4.44864419289978E-01  1.89739632343250E+00
(PID.TID 0000.0001)  cg2d: iter=     1 ; resid.=  4.70287790856244E-02
(PID.TID 0000.0001)  cg2d: iter=     2 ; resid.=  2.58718225928334E-02
(PID.TID 0000.0001)  cg2d: iter=     3 ; resid.=  2.04161197470416E-02
(PID.TID 0000.0001)  cg2d: iter=     4 ; resid.=  2.31409389916188E-02
(PID.TID 0000.0001)  cg2d: iter=     5 ; resid.=  2.12977205346768E-02
(PID.TID 0000.0001)  cg2d: iter=     6 ; resid.=  1.94148522075749E-02
(PID.TID 0000.0001)  cg2d: iter=     7 ; resid.=  1.64152950596272E-02
(PID.TID 0000.0001)  cg2d: iter=     8 ; resid.=  1.33268964104748E-02
(PID.TID 0000.0001)  cg2d: iter=     9 ; resid.=  1.06927507600451E-02
(PID.TID 0000.0001)  cg2d: iter=    10 ; resid.=  7.94499246007196E-03
(PID.TID 0000.0001)  cg2d: iter=    11 ; resid.=  5.95614263767050E-03
(PID.TID 0000.0001)  cg2d: iter=    12 ; resid.=  4.84174200226024E-03
(PID.TID 0000.0001)  cg2d: iter=    13 ; resid.=  4.07235251533508E-03
(PID.TID 0000.0001)  cg2d: iter=    14 ; resid.=  3.51835177599739E-03
(PID.TID 0000.0001)  cg2d: iter=    15 ; resid.=  3.05447936878239E-03
(PID.TID 0000.0001)  cg2d: iter=    16 ; resid.=  2.47366535859269E-03
(PID.TID 0000.0001)  cg2d: iter=    17 ; resid.=  2.17027761862165E-03
(PID.TID 0000.0001)  cg2d: iter=    18 ; resid.=  1.84284406673040E-03
(PID.TID 0000.0001)  cg2d: iter=    19 ; resid.=  1.57404717786845E-03
(PID.TID 0000.0001)  cg2d: iter=    20 ; resid.=  1.24655712785500E-03
(PID.TID 0000.0001)  cg2d: iter=    21 ; resid.=  1.00087676940741E-03
(PID.TID 0000.0001)  cg2d: iter=    22 ; resid.=  7.96681379369380E-04
(PID.TID 0000.0001)  cg2d: iter=    23 ; resid.=  6.42185913035759E-04
(PID.TID 0000.0001)  cg2d: iter=    24 ; resid.=  5.82010409558723E-04
(PID.TID 0000.0001)  cg2d: iter=    25 ; resid.=  5.51174434714228E-04
(PID.TID 0000.0001)  cg2d: iter=    26 ; resid.=  4.38435465634770E-04
(PID.TID 0000.0001)  cg2d: iter=    27 ; resid.=  3.56736201267521E-04
(PID.TID 0000.0001)  cg2d: iter=    28 ; resid.=  2.87054114762103E-04
(PID.TID 0000.0001)  cg2d: iter=    29 ; resid.=  2.28924917723464E-04
(PID.TID 0000.0001)  cg2d: iter=    30 ; resid.=  1.84828831299966E-04
(PID.TID 0000.0001)  cg2d: iter=    31 ; resid.=  1.42114135009882E-04
(PID.TID 0000.0001)  cg2d: iter=    32 ; resid.=  1.16459071003782E-04
(PID.TID 0000.0001)  cg2d: iter=    33 ; resid.=  8.85951449740179E-05
(PID.TID 0000.0001)  cg2d: iter=    34 ; resid.=  7.21108650582307E-05
(PID.TID 0000.0001)  cg2d: iter=    35 ; resid.=  5.80422598824277E-05
(PID.TID 0000.0001)  cg2d: iter=    36 ; resid.=  4.48157030785735E-05
(PID.TID 0000.0001)  cg2d: iter=    37 ; resid.=  3.74128601203419E-05
(PID.TID 0000.0001)  cg2d: iter=    38 ; resid.=  3.36327427337710E-05
(PID.TID 0000.0001)  cg2d: iter=    39 ; resid.=  3.04829527547998E-05
(PID.TID 0000.0001)  cg2d: iter=    40 ; resid.=  2.46647681434694E-05
(PID.TID 0000.0001)  cg2d: iter=    41 ; resid.=  1.86168079045490E-05
(PID.TID 0000.0001)  cg2d: iter=    42 ; resid.=  1.45948438656400E-05
(PID.TID 0000.0001)  cg2d: iter=    43 ; resid.=  1.25681905370046E-05
(PID.TID 0000.0001)  cg2d: iter=    44 ; resid.=  1.07131162901091E-05
(PID.TID 0000.0001)  cg2d: iter=    45 ; resid.=  8.73311076778864E-06
(PID.TID 0000.0001)  cg2d: iter=    46 ; resid.=  7.01716130998724E-06
(PID.TID 0000.0001)  cg2d: iter=    47 ; resid.=  5.63942300034006E-06
(PID.TID 0000.0001)  cg2d: iter=    48 ; resid.=  4.88191060234394E-06
(PID.TID 0000.0001)  cg2d: iter=    49 ; resid.=  4.14676506568994E-06
(PID.TID 0000.0001)  cg2d: iter=    50 ; resid.=  3.29274289863100E-06
(PID.TID 0000.0001)  cg2d: iter=    51 ; resid.=  2.60120774512839E-06
(PID.TID 0000.0001)  cg2d: iter=    52 ; resid.=  2.06855816223325E-06
(PID.TID 0000.0001)  cg2d: iter=    53 ; resid.=  1.76453095155736E-06
(PID.TID 0000.0001)  cg2d: iter=    54 ; resid.=  1.65409701660885E-06
(PID.TID 0000.0001)  cg2d: iter=    55 ; resid.=  1.49244926951847E-06
(PID.TID 0000.0001)  cg2d: iter=    56 ; resid.=  1.28210875347923E-06
(PID.TID 0000.0001)  cg2d: iter=    57 ; resid.=  1.12532786116371E-06
(PID.TID 0000.0001)  cg2d: iter=    58 ; resid.=  9.74701580337080E-07
(PID.TID 0000.0001)  cg2d: iter=    59 ; resid.=  7.72185626361065E-07
(PID.TID 0000.0001)  cg2d: iter=    60 ; resid.=  5.92313356602584E-07
(PID.TID 0000.0001)  cg2d: iter=    61 ; resid.=  4.60877816699186E-07
(PID.TID 0000.0001)  cg2d: iter=    62 ; resid.=  3.86333876354127E-07
(PID.TID 0000.0001)  cg2d: iter=    63 ; resid.=  3.30691211933047E-07
(PID.TID 0000.0001)  cg2d: iter=    64 ; resid.=  2.78119649193502E-07
(PID.TID 0000.0001)  cg2d: iter=    65 ; resid.=  2.36779848507903E-07
(PID.TID 0000.0001)  cg2d: iter=    66 ; resid.=  1.97911270341632E-07
(PID.TID 0000.0001)  cg2d: iter=    67 ; resid.=  1.60008183176290E-07
(PID.TID 0000.0001)  cg2d: iter=    68 ; resid.=  1.37981507701715E-07
(PID.TID 0000.0001)  cg2d: iter=    69 ; resid.=  1.12747245519605E-07
(PID.TID 0000.0001)  cg2d: iter=    70 ; resid.=  8.64755553933592E-08
(PID.TID 0000.0001)  cg2d: iter=    71 ; resid.=  7.22293374429792E-08
(PID.TID 0000.0001)  cg2d: iter=    72 ; resid.=  6.23919994641320E-08
(PID.TID 0000.0001)  cg2d: iter=    73 ; resid.=  6.21906122127527E-08
(PID.TID 0000.0001)  cg2d: iter=    74 ; resid.=  5.94050951957513E-08
(PID.TID 0000.0001)  cg2d: iter=    75 ; resid.=  5.30677215264114E-08
(PID.TID 0000.0001)  cg2d: iter=    76 ; resid.=  4.33734453800103E-08
(PID.TID 0000.0001)  cg2d: iter=    77 ; resid.=  3.42966081189020E-08
(PID.TID 0000.0001)  cg2d: iter=    78 ; resid.=  2.82379482861908E-08
(PID.TID 0000.0001)  cg2d: iter=    79 ; resid.=  2.17510223754032E-08
(PID.TID 0000.0001)  cg2d: iter=    80 ; resid.=  1.46003622991054E-08
(PID.TID 0000.0001)  cg2d: iter=    81 ; resid.=  1.07627612237689E-08
(PID.TID 0000.0001)  cg2d: iter=    82 ; resid.=  7.71311812829336E-09
(PID.TID 0000.0001)  cg2d: iter=    83 ; resid.=  5.93386910065798E-09
(PID.TID 0000.0001)  cg2d: iter=    84 ; resid.=  4.77909046944813E-09
(PID.TID 0000.0001)  cg2d: iter=    85 ; resid.=  3.77501393853372E-09
(PID.TID 0000.0001)  cg2d: iter=    86 ; resid.=  2.91820688960440E-09
(PID.TID 0000.0001)  cg2d: iter=    87 ; resid.=  2.33730382973437E-09
(PID.TID 0000.0001)  cg2d: iter=    88 ; resid.=  1.73491003224353E-09
(PID.TID 0000.0001)  cg2d: iter=    89 ; resid.=  1.38947566504459E-09
(PID.TID 0000.0001)  cg2d: iter=    90 ; resid.=  1.15257813549613E-09
(PID.TID 0000.0001)  cg2d: iter=    91 ; resid.=  9.49492637807389E-10
(PID.TID 0000.0001)  cg2d: iter=    92 ; resid.=  8.36954362904409E-10
(PID.TID 0000.0001)  cg2d: iter=    93 ; resid.=  6.89815587065558E-10
(PID.TID 0000.0001)  cg2d: iter=    94 ; resid.=  5.68265997415517E-10
(PID.TID 0000.0001)  cg2d: iter=    95 ; resid.=  4.40817353101219E-10
(PID.TID 0000.0001)  cg2d: iter=    96 ; resid.=  3.69900898308561E-10
(PID.TID 0000.0001)  cg2d: iter=    97 ; resid.=  3.07129246179767E-10
(PID.TID 0000.0001)  cg2d: iter=    98 ; resid.=  2.41316636374891E-10
(PID.TID 0000.0001)  cg2d: iter=    99 ; resid.=  1.80251531566788E-10
(PID.TID 0000.0001)  cg2d: iter=   100 ; resid.=  1.57725720270100E-10
(PID.TID 0000.0001)  cg2d: iter=   101 ; resid.=  1.43190249780850E-10
(PID.TID 0000.0001)  cg2d: iter=   102 ; resid.=  1.18444780032331E-10
(PID.TID 0000.0001)  cg2d: iter=   103 ; resid.=  8.90815693015818E-11
(PID.TID 0000.0001)  cg2d: iter=   104 ; resid.=  6.31235754336172E-11
(PID.TID 0000.0001)  cg2d: iter=   105 ; resid.=  4.53385743888549E-11
(PID.TID 0000.0001)  cg2d: iter=   106 ; resid.=  3.20566042337051E-11
(PID.TID 0000.0001)  cg2d: iter=   107 ; resid.=  2.45523072162893E-11
(PID.TID 0000.0001)  cg2d: iter=   108 ; resid.=  1.90052344987596E-11
(PID.TID 0000.0001)  cg2d: iter=   109 ; resid.=  1.45726352662064E-11
(PID.TID 0000.0001)  cg2d: iter=   110 ; resid.=  9.78414119668371E-12
(PID.TID 0000.0001)  cg2d: iter=   111 ; resid.=  6.76717319819747E-12
(PID.TID 0000.0001)  cg2d: iter=   112 ; resid.=  5.28479955019942E-12
(PID.TID 0000.0001)  cg2d: iter=   113 ; resid.=  4.17633761056837E-12
(PID.TID 0000.0001)  cg2d: iter=   114 ; resid.=  3.31449425063413E-12
(PID.TID 0000.0001)  cg2d: iter=   115 ; resid.=  2.68585006636955E-12
(PID.TID 0000.0001)  cg2d: iter=   116 ; resid.=  1.88379791314841E-12
(PID.TID 0000.0001)  cg2d: iter=   117 ; resid.=  1.35419849528554E-12
(PID.TID 0000.0001)  cg2d: iter=   118 ; resid.=  1.11495906975996E-12
(PID.TID 0000.0001)  cg2d: iter=   119 ; resid.=  8.91212018970543E-13
(PID.TID 0000.0001)  cg2d: iter=   120 ; resid.=  6.70130478372086E-13
(PID.TID 0000.0001)  cg2d: iter=   121 ; resid.=  4.94788500955349E-13
(PID.TID 0000.0001)  cg2d: iter=   122 ; resid.=  3.69854215825646E-13
(PID.TID 0000.0001)  cg2d: iter=   123 ; resid.=  2.73956828678468E-13
(PID.TID 0000.0001)  cg2d: iter=   124 ; resid.=  2.00327570648563E-13
(PID.TID 0000.0001)  cg2d: iter=   125 ; resid.=  1.44515947420163E-13
(PID.TID 0000.0001)  cg2d: iter=   126 ; resid.=  1.15157349074027E-13
(PID.TID 0000.0001)  cg2d: iter=   127 ; resid.=  8.02705014380410E-14
DEBUG_STATS_RL:    cg2d_x (SOLVE_FOR_PRESSURE)  min= -1.81307984926565E+01
DEBUG_STATS_RL:    cg2d_x (SOLVE_FOR_PRESSURE)  max=  8.99995715497493E+00
DEBUG_STATS_RL:    cg2d_x (SOLVE_FOR_PRESSURE) mean= -1.88820849889193E+00
DEBUG_STATS_RL:    cg2d_x (SOLVE_FOR_PRESSURE) S.D.=  7.25767442493910E+00
(PID.TID 0000.0001)      cg2d_init_res =   1.81831910915300E-01
(PID.TID 0000.0001)      cg2d_iters(min,last) =      -1     127
(PID.TID 0000.0001)      cg2d_last_res =   8.02705014380410E-14
(PID.TID 0000.0001) // =======================================================
(PID.TID 0000.0001) // Begin MONITOR dynamic field statistics
(PID.TID 0000.0001) // =======================================================
(PID.TID 0000.0001) %MON time_tsnumber                =                    91
(PID.TID 0000.0001) %MON time_secondsf                =   7.8624000000000E+06
(PID.TID 0000.0001) %MON dynstat_eta_max              =   9.1742682517589E-01
(PID.TID 0000.0001) %MON dynstat_eta_min              =  -1.8481955650007E+00
(PID.TID 0000.0001) %MON dynstat_eta_mean             =  -5.7919489853288E-03
(PID.TID 0000.0001) %MON dynstat_eta_sd               =   6.3786121045011E-01
(PID.TID 0000.0001) %MON dynstat_eta_del2             =   2.4995284031843E-03
(PID.TID 0000.0001) %MON dynstat_uvel_max             =   1.4965912545936E-01
(PID.TID 0000.0001) %MON dynstat_uvel_min             =  -1.3113424813669E-01
(PID.TID 0000.0001) %MON dynstat_uvel_mean            =   2.7171838591651E-03
(PID.TID 0000.0001) %MON dynstat_uvel_sd              =   1.3644262410646E-02
(PID.TID 0000.0001) %MON dynstat_uvel_del2            =   8.3009265239046E-05
(PID.TID 0000.0001) %MON dynstat_vvel_max             =   1.2286230874241E-01
(PID.TID 0000.0001) %MON dynstat_vvel_min             =  -7.8929638161567E-02
(PID.TID 0000.0001) %MON dynstat_vvel_mean            =   2.4914571392561E-06
(PID.TID 0000.0001) %MON dynstat_vvel_sd              =   7.6298339648909E-03
(PID.TID 0000.0001) %MON dynstat_vvel_del2            =   7.2426497679379E-05
(PID.TID 0000.0001) %MON dynstat_wvel_max             =   1.2218138827956E-04
(PID.TID 0000.0001) %MON dynstat_wvel_min             =  -5.3817823154021E-05
(PID.TID 0000.0001) %MON dynstat_wvel_mean            =  -2.9233108214733E-23
(PID.TID 0000.0001) %MON dynstat_wvel_sd              =   8.9935605763575E-06
(PID.TID 0000.0001) %MON dynstat_wvel_del2            =   8.8894816621328E-08
(PID.TID 0000.0001) %MON dynstat_theta_max            =   3.1229280989674E+01
(PID.TID 0000.0001) %MON dynstat_theta_min            =  -1.9319588777434E+00
(PID.TID 0000.0001) %MON dynstat_theta_mean           =   3.6243723550671E+00
(PID.TID 0000.0001) %MON dynstat_theta_sd             =   4.4288074769852E+00
(PID.TID 0000.0001) %MON dynstat_theta_del2           =   4.8185373089111E-03
(PID.TID 0000.0001) %MON dynstat_salt_max             =   3.7470058014032E+01
(PID.TID 0000.0001) %MON dynstat_salt_min             =   2.9946295493485E+01
(PID.TID 0000.0001) %MON dynstat_salt_mean            =   3.4718004863790E+01
(PID.TID 0000.0001) %MON dynstat_salt_sd              =   2.9666539504455E-01
(PID.TID 0000.0001) %MON dynstat_salt_del2            =   9.9925620392832E-04
(PID.TID 0000.0001) %MON dynstat_sst_max              =   3.1229280989674E+01
(PID.TID 0000.0001) %MON dynstat_sst_min              =  -1.9319588777434E+00
(PID.TID 0000.0001) %MON dynstat_sst_mean             =   1.9043566827190E+01
(PID.TID 0000.0001) %MON dynstat_sst_sd               =   9.2592504234239E+00
(PID.TID 0000.0001) %MON dynstat_sst_del2             =   2.9368545865585E-02
(PID.TID 0000.0001) %MON dynstat_sss_max              =   3.7470058014032E+01
(PID.TID 0000.0001) %MON dynstat_sss_min              =   2.9946295493485E+01
(PID.TID 0000.0001) %MON dynstat_sss_mean             =   3.4836491827402E+01
(PID.TID 0000.0001) %MON dynstat_sss_sd               =   9.9114203460538E-01
(PID.TID 0000.0001) %MON dynstat_sss_del2             =   8.3282544515286E-03
(PID.TID 0000.0001) %MON forcing_qnet_max             =   2.0392916870117E+02
(PID.TID 0000.0001) %MON forcing_qnet_min             =  -1.5743564605713E+02
(PID.TID 0000.0001) %MON forcing_qnet_mean            =  -1.3095195556001E+00
(PID.TID 0000.0001) %MON forcing_qnet_sd              =   3.9393235580396E+01
(PID.TID 0000.0001) %MON forcing_qnet_del2            =   7.8410744679858E-01
(PID.TID 0000.0001) %MON forcing_qsw_max              =   0.0000000000000E+00
(PID.TID 0000.0001) %MON forcing_qsw_min              =   0.0000000000000E+00
(PID.TID 0000.0001) %MON forcing_qsw_mean             =   0.0000000000000E+00
(PID.TID 0000.0001) %MON forcing_qsw_sd               =   0.0000000000000E+00
(PID.TID 0000.0001) %MON forcing_qsw_del2             =   0.0000000000000E+00
(PID.TID 0000.0001) %MON forcing_empmr_max            =   6.7666256597931E-05
(PID.TID 0000.0001) %MON forcing_empmr_min            =  -8.3487108781810E-05
(PID.TID 0000.0001) %MON forcing_empmr_mean           =   2.1403058126522E-07
(PID.TID 0000.0001) %MON forcing_empmr_sd             =   2.5565388695829E-05
(PID.TID 0000.0001) %MON forcing_empmr_del2           =   3.6396270903626E-07
(PID.TID 0000.0001) %MON forcing_fu_max               =   3.4788966178894E-01
(PID.TID 0000.0001) %MON forcing_fu_min               =  -4.0255250036716E-01
(PID.TID 0000.0001) %MON forcing_fu_mean              =   1.8548847846395E-02
(PID.TID 0000.0001) %MON forcing_fu_sd                =   1.0035271102414E-01
(PID.TID 0000.0001) %MON forcing_fu_del2              =   7.7663796698736E-04
(PID.TID 0000.0001) %MON forcing_fv_max               =   1.8186032772064E-01
(PID.TID 0000.0001) %MON forcing_fv_min               =  -1.4296149462461E-01
(PID.TID 0000.0001) %MON forcing_fv_mean              =  -6.9824253544491E-03
(PID.TID 0000.0001) %MON forcing_fv_sd                =   3.8754640563461E-02
(PID.TID 0000.0001) %MON forcing_fv_del2              =   4.1635659249550E-04
(PID.TID 0000.0001) %MON trAdv_CFL_u_max              =   4.1667326973068E-02
(PID.TID 0000.0001) %MON trAdv_CFL_v_max              =   2.3835418964595E-02
(PID.TID 0000.0001) %MON trAdv_CFL_w_max              =   2.6752436059718E-02
(PID.TID 0000.0001) %MON advcfl_uvel_max              =   4.2718859082915E-02
(PID.TID 0000.0001) %MON advcfl_vvel_max              =   2.3870176114120E-02
(PID.TID 0000.0001) %MON advcfl_wvel_max              =   2.8210546604331E-02
(PID.TID 0000.0001) %MON advcfl_W_hf_max              =   3.0284851501708E-02
(PID.TID 0000.0001) %MON pe_b_mean                    =   5.2067819683183E-04
(PID.TID 0000.0001) %MON ke_max                       =   1.2986149903014E-02
(PID.TID 0000.0001) %MON ke_mean                      =   1.1406721652297E-04
(PID.TID 0000.0001) %MON ke_vol                       =   1.3226782436723E+18
(PID.TID 0000.0001) %MON vort_r_min                   =  -3.4828328493803E-07
(PID.TID 0000.0001) %MON vort_r_max                   =   3.6345354135008E-07
(PID.TID 0000.0001) %MON vort_a_mean                  =  -2.5274807008916E-05
(PID.TID 0000.0001) %MON vort_a_sd                    =   7.3604724291619E-05
(PID.TID 0000.0001) %MON vort_p_mean                  =  -3.1845655309927E-05
(PID.TID 0000.0001) %MON vort_p_sd                    =   1.3162499006948E-04
(PID.TID 0000.0001) %MON surfExpan_theta_mean         =   1.5287468227813E-07
(PID.TID 0000.0001) %MON surfExpan_salt_mean          =  -9.2295188285915E-09
(PID.TID 0000.0001) // =======================================================
(PID.TID 0000.0001) // End MONITOR dynamic field statistics
(PID.TID 0000.0001) // =======================================================
 EXTERNAL_FIELDS_LOAD,        91 : iP,iLd,i0,i1=    3    4    3    4 ; Wght=  0.4666666667  0.5333333333
 EXTERNAL_FIELDS_LOAD: (fu0,1),fu,fv= -2.7199E-02 -3.7252E-02 -3.2561E-02 -1.9052E-02
 EXTERNAL_FIELDS_LOAD: SST,SSS,Q,E-P= -6.6976E-02  3.4574E+01  1.5604E+02  8.3812E-06
DEBUG_STATS_RL:          Uvel (THERMODYNAMICS)  min= -1.31134248136693E-01
DEBUG_STATS_RL:          Uvel (THERMODYNAMICS)  max=  1.49659125459357E-01
DEBUG_STATS_RL:          Uvel (THERMODYNAMICS) mean=  6.18633164097495E-03
DEBUG_STATS_RL:          Uvel (THERMODYNAMICS) S.D.=  2.18062458592168E-02
DEBUG_STATS_RL:          Vvel (THERMODYNAMICS)  min= -7.89296381615665E-02
DEBUG_STATS_RL:          Vvel (THERMODYNAMICS)  max=  1.22862308742410E-01
DEBUG_STATS_RL:          Vvel (THERMODYNAMICS) mean=  8.61986104349154E-04
DEBUG_STATS_RL:          Vvel (THERMODYNAMICS) S.D.=  1.25226696163630E-02
DEBUG_STATS_RL:          Wvel (THERMODYNAMICS)  min= -5.38178231540210E-05
DEBUG_STATS_RL:          Wvel (THERMODYNAMICS)  max=  1.22181388279558E-04
DEBUG_STATS_RL:          Wvel (THERMODYNAMICS) mean= -4.59029835101157E-08
DEBUG_STATS_RL:          Wvel (THERMODYNAMICS) S.D.=  7.94967951429878E-06
DEBUG_STATS_RL:         Theta (THERMODYNAMICS)  min= -1.93092959278734E+00
DEBUG_STATS_RL:         Theta (THERMODYNAMICS)  max=  3.12428928188555E+01
DEBUG_STATS_RL:         Theta (THERMODYNAMICS) mean=  3.22021617983392E+00
DEBUG_STATS_RL:         Theta (THERMODYNAMICS) S.D.=  5.88887516481355E+00
DEBUG_STATS_RL:          Salt (THERMODYNAMICS)  min= -3.29597460435593E-17
DEBUG_STATS_RL:          Salt (THERMODYNAMICS)  max=  3.74709305427388E+01
DEBUG_STATS_RL:          Salt (THERMODYNAMICS) mean=  1.88447338916038E+01
DEBUG_STATS_RL:          Salt (THERMODYNAMICS) S.D.=  1.73002950331940E+01
DEBUG_STATS_RL:         GtNm1 (THERMODYNAMICS)  min= -3.09057053539222E-06
DEBUG_STATS_RL:         GtNm1 (THERMODYNAMICS)  max=  1.93127490772290E-06
DEBUG_STATS_RL:         GtNm1 (THERMODYNAMICS) mean= -2.15566737945238E-09
DEBUG_STATS_RL:         GtNm1 (THERMODYNAMICS) S.D.=  1.28429763007624E-07
DEBUG_STATS_RL:         GsNm1 (THERMODYNAMICS)  min= -3.76369084743215E-07
DEBUG_STATS_RL:         GsNm1 (THERMODYNAMICS)  max=  2.22052181307181E-07
DEBUG_STATS_RL:         GsNm1 (THERMODYNAMICS) mean= -2.14376236198795E-10
DEBUG_STATS_RL:         GsNm1 (THERMODYNAMICS) S.D.=  1.26170889749436E-08
DEBUG_STATS_RL:                EtaN (DYNAMICS)  min= -1.84819556500069E+00
DEBUG_STATS_RL:                EtaN (DYNAMICS)  max=  9.17426825175893E-01
DEBUG_STATS_RL:                EtaN (DYNAMICS) mean= -1.92477930570023E-01
DEBUG_STATS_RL:                EtaN (DYNAMICS) S.D.=  7.39824100401543E-01
DEBUG_STATS_RL:                Uvel (DYNAMICS)  min= -1.31134248136693E-01
DEBUG_STATS_RL:                Uvel (DYNAMICS)  max=  1.49659125459357E-01
DEBUG_STATS_RL:                Uvel (DYNAMICS) mean=  6.18633164097495E-03
DEBUG_STATS_RL:                Uvel (DYNAMICS) S.D.=  2.18062458592168E-02
DEBUG_STATS_RL:                Vvel (DYNAMICS)  min= -7.89296381615665E-02
DEBUG_STATS_RL:                Vvel (DYNAMICS)  max=  1.22862308742410E-01
DEBUG_STATS_RL:                Vvel (DYNAMICS) mean=  8.61986104349154E-04
DEBUG_STATS_RL:                Vvel (DYNAMICS) S.D.=  1.25226696163630E-02
DEBUG_STATS_RL:                Wvel (DYNAMICS)  min= -5.38178231540210E-05
DEBUG_STATS_RL:                Wvel (DYNAMICS)  max=  1.22181388279558E-04
DEBUG_STATS_RL:                Wvel (DYNAMICS) mean= -4.59029835101157E-08
DEBUG_STATS_RL:                Wvel (DYNAMICS) S.D.=  7.94967951429878E-06
DEBUG_STATS_RL:               Theta (DYNAMICS)  min= -1.93092959278734E+00
DEBUG_STATS_RL:               Theta (DYNAMICS)  max=  3.12428928188555E+01
DEBUG_STATS_RL:               Theta (DYNAMICS) mean=  3.22021617983392E+00
DEBUG_STATS_RL:               Theta (DYNAMICS) S.D.=  5.88887516481355E+00
DEBUG_STATS_RL:                Salt (DYNAMICS)  min= -3.29597460435593E-17
DEBUG_STATS_RL:                Salt (DYNAMICS)  max=  3.74709305427388E+01
DEBUG_STATS_RL:                Salt (DYNAMICS) mean=  1.88447338916038E+01
DEBUG_STATS_RL:                Salt (DYNAMICS) S.D.=  1.73002950331940E+01
DEBUG_STATS_RL:                  Gu (DYNAMICS)  min= -1.30100087990578E-01
DEBUG_STATS_RL:                  Gu (DYNAMICS)  max=  1.44399210182345E-01
DEBUG_STATS_RL:                  Gu (DYNAMICS) mean=  6.14846439291154E-03
DEBUG_STATS_RL:                  Gu (DYNAMICS) S.D.=  2.22378644177935E-02
DEBUG_STATS_RL:                  Gv (DYNAMICS)  min= -7.85018652335257E-02
DEBUG_STATS_RL:                  Gv (DYNAMICS)  max=  1.23021437466761E-01
DEBUG_STATS_RL:                  Gv (DYNAMICS) mean=  3.52608688436940E-03
DEBUG_STATS_RL:                  Gv (DYNAMICS) S.D.=  1.41233237072398E-02
DEBUG_STATS_RL:               GuNm1 (DYNAMICS)  min= -9.47965571458672E-06
DEBUG_STATS_RL:               GuNm1 (DYNAMICS)  max=  9.85897722323153E-06
DEBUG_STATS_RL:               GuNm1 (DYNAMICS) mean=  1.26238341990313E-08
DEBUG_STATS_RL:               GuNm1 (DYNAMICS) S.D.=  1.22531008797491E-06
DEBUG_STATS_RL:               GvNm1 (DYNAMICS)  min= -9.33713572028047E-06
DEBUG_STATS_RL:               GvNm1 (DYNAMICS)  max=  1.51553821837439E-05
DEBUG_STATS_RL:               GvNm1 (DYNAMICS) mean=  7.38617702331754E-07
DEBUG_STATS_RL:               GvNm1 (DYNAMICS) S.D.=  2.60146586066069E-06
DEBUG_STATS_RL:               GtNm1 (DYNAMICS)  min= -3.09057053539222E-06
DEBUG_STATS_RL:               GtNm1 (DYNAMICS)  max=  1.93127490772290E-06
DEBUG_STATS_RL:               GtNm1 (DYNAMICS) mean= -2.15566737945238E-09
DEBUG_STATS_RL:               GtNm1 (DYNAMICS) S.D.=  1.28429763007624E-07
DEBUG_STATS_RL:               GsNm1 (DYNAMICS)  min= -3.76369084743215E-07
DEBUG_STATS_RL:               GsNm1 (DYNAMICS)  max=  2.22052181307181E-07
DEBUG_STATS_RL:               GsNm1 (DYNAMICS) mean= -2.14376236198795E-10
DEBUG_STATS_RL:               GsNm1 (DYNAMICS) S.D.=  1.26170889749436E-08
DEBUG_STATS_RL:    cg2d_b (SOLVE_FOR_PRESSURE)  min= -2.72043879203919E+04
DEBUG_STATS_RL:    cg2d_b (SOLVE_FOR_PRESSURE)  max=  2.90337116033128E+04
DEBUG_STATS_RL:    cg2d_b (SOLVE_FOR_PRESSURE) mean=  5.56649008911361E+00
DEBUG_STATS_RL:    cg2d_b (SOLVE_FOR_PRESSURE) S.D.=  3.97050268730163E+03
 cg2d: Sum(rhs),rhsMax =   4.43843513098353E-01  1.90701191371154E+00
(PID.TID 0000.0001)  cg2d: iter=     1 ; resid.=  4.55195170480744E-02
(PID.TID 0000.0001)  cg2d: iter=     2 ; resid.=  2.48796413731817E-02
(PID.TID 0000.0001)  cg2d: iter=     3 ; resid.=  1.96658127026066E-02
(PID.TID 0000.0001)  cg2d: iter=     4 ; resid.=  2.24263499557548E-02
(PID.TID 0000.0001)  cg2d: iter=     5 ; resid.=  2.06090043010011E-02
(PID.TID 0000.0001)  cg2d: iter=     6 ; resid.=  1.87730744224026E-02
(PID.TID 0000.0001)  cg2d: iter=     7 ; resid.=  1.57521987227432E-02
(PID.TID 0000.0001)  cg2d: iter=     8 ; resid.=  1.28379968577860E-02
(PID.TID 0000.0001)  cg2d: iter=     9 ; resid.=  1.04526286660671E-02
(PID.TID 0000.0001)  cg2d: iter=    10 ; resid.=  7.77948214019399E-03
(PID.TID 0000.0001)  cg2d: iter=    11 ; resid.=  5.84182379815843E-03
(PID.TID 0000.0001)  cg2d: iter=    12 ; resid.=  4.80181290839021E-03
(PID.TID 0000.0001)  cg2d: iter=    13 ; resid.=  4.09386303497847E-03
(PID.TID 0000.0001)  cg2d: iter=    14 ; resid.=  3.56261010136122E-03
(PID.TID 0000.0001)  cg2d: iter=    15 ; resid.=  3.06119220802402E-03
(PID.TID 0000.0001)  cg2d: iter=    16 ; resid.=  2.45365424797976E-03
(PID.TID 0000.0001)  cg2d: iter=    17 ; resid.=  2.15738383037929E-03
(PID.TID 0000.0001)  cg2d: iter=    18 ; resid.=  1.82416524939699E-03
(PID.TID 0000.0001)  cg2d: iter=    19 ; resid.=  1.53364328151080E-03
(PID.TID 0000.0001)  cg2d: iter=    20 ; resid.=  1.21335900425065E-03
(PID.TID 0000.0001)  cg2d: iter=    21 ; resid.=  9.77979235214977E-04
(PID.TID 0000.0001)  cg2d: iter=    22 ; resid.=  7.89520652360034E-04
(PID.TID 0000.0001)  cg2d: iter=    23 ; resid.=  6.27955476553521E-04
(PID.TID 0000.0001)  cg2d: iter=    24 ; resid.=  5.69569783974100E-04
(PID.TID 0000.0001)  cg2d: iter=    25 ; resid.=  5.42049107165713E-04
(PID.TID 0000.0001)  cg2d: iter=    26 ; resid.=  4.34150733760213E-04
(PID.TID 0000.0001)  cg2d: iter=    27 ; resid.=  3.52621709609023E-04
(PID.TID 0000.0001)  cg2d: iter=    28 ; resid.=  2.85604942396137E-04
(PID.TID 0000.0001)  cg2d: iter=    29 ; resid.=  2.26855841289712E-04
(PID.TID 0000.0001)  cg2d: iter=    30 ; resid.=  1.82408909831513E-04
(PID.TID 0000.0001)  cg2d: iter=    31 ; resid.=  1.41691943411430E-04
(PID.TID 0000.0001)  cg2d: iter=    32 ; resid.=  1.16245074269753E-04
(PID.TID 0000.0001)  cg2d: iter=    33 ; resid.=  8.67177107143485E-05
(PID.TID 0000.0001)  cg2d: iter=    34 ; resid.=  7.06395552289537E-05
(PID.TID 0000.0001)  cg2d: iter=    35 ; resid.=  5.67091068504056E-05
(PID.TID 0000.0001)  cg2d: iter=    36 ; resid.=  4.33299397114217E-05
(PID.TID 0000.0001)  cg2d: iter=    37 ; resid.=  3.61405905625192E-05
(PID.TID 0000.0001)  cg2d: iter=    38 ; resid.=  3.29206097181395E-05
(PID.TID 0000.0001)  cg2d: iter=    39 ; resid.=  2.98869634540468E-05
(PID.TID 0000.0001)  cg2d: iter=    40 ; resid.=  2.43688770666183E-05
(PID.TID 0000.0001)  cg2d: iter=    41 ; resid.=  1.86632448233082E-05
(PID.TID 0000.0001)  cg2d: iter=    42 ; resid.=  1.47085885572000E-05
(PID.TID 0000.0001)  cg2d: iter=    43 ; resid.=  1.27412927638858E-05
(PID.TID 0000.0001)  cg2d: iter=    44 ; resid.=  1.07957295518457E-05
(PID.TID 0000.0001)  cg2d: iter=    45 ; resid.=  8.85103306639127E-06
(PID.TID 0000.0001)  cg2d: iter=    46 ; resid.=  7.24595169133463E-06
(PID.TID 0000.0001)  cg2d: iter=    47 ; resid.=  5.97014020919450E-06
(PID.TID 0000.0001)  cg2d: iter=    48 ; resid.=  5.20063235660363E-06
(PID.TID 0000.0001)  cg2d: iter=    49 ; resid.=  4.45897550893914E-06
(PID.TID 0000.0001)  cg2d: iter=    50 ; resid.=  3.57801925424343E-06
(PID.TID 0000.0001)  cg2d: iter=    51 ; resid.=  2.85582968212396E-06
(PID.TID 0000.0001)  cg2d: iter=    52 ; resid.=  2.35256910153993E-06
(PID.TID 0000.0001)  cg2d: iter=    53 ; resid.=  2.05027798755882E-06
(PID.TID 0000.0001)  cg2d: iter=    54 ; resid.=  1.95505923805965E-06
(PID.TID 0000.0001)  cg2d: iter=    55 ; resid.=  1.77269259917386E-06
(PID.TID 0000.0001)  cg2d: iter=    56 ; resid.=  1.50908053539493E-06
(PID.TID 0000.0001)  cg2d: iter=    57 ; resid.=  1.29192847940976E-06
(PID.TID 0000.0001)  cg2d: iter=    58 ; resid.=  1.07550923296863E-06
(PID.TID 0000.0001)  cg2d: iter=    59 ; resid.=  8.41527384465716E-07
(PID.TID 0000.0001)  cg2d: iter=    60 ; resid.=  6.47227830352302E-07
(PID.TID 0000.0001)  cg2d: iter=    61 ; resid.=  5.09737778697660E-07
(PID.TID 0000.0001)  cg2d: iter=    62 ; resid.=  4.24075011954563E-07
(PID.TID 0000.0001)  cg2d: iter=    63 ; resid.=  3.63858893816203E-07
(PID.TID 0000.0001)  cg2d: iter=    64 ; resid.=  3.09849631901971E-07
(PID.TID 0000.0001)  cg2d: iter=    65 ; resid.=  2.64266198597038E-07
(PID.TID 0000.0001)  cg2d: iter=    66 ; resid.=  2.17686812887377E-07
(PID.TID 0000.0001)  cg2d: iter=    67 ; resid.=  1.74006820899221E-07
(PID.TID 0000.0001)  cg2d: iter=    68 ; resid.=  1.48335026598861E-07
(PID.TID 0000.0001)  cg2d: iter=    69 ; resid.=  1.20267927056394E-07
(PID.TID 0000.0001)  cg2d: iter=    70 ; resid.=  9.41227954759234E-08
(PID.TID 0000.0001)  cg2d: iter=    71 ; resid.=  8.02539168684750E-08
(PID.TID 0000.0001)  cg2d: iter=    72 ; resid.=  6.84828931672514E-08
(PID.TID 0000.0001)  cg2d: iter=    73 ; resid.=  6.72930941166577E-08
(PID.TID 0000.0001)  cg2d: iter=    74 ; resid.=  6.23410417205535E-08
(PID.TID 0000.0001)  cg2d: iter=    75 ; resid.=  5.41203124980881E-08
(PID.TID 0000.0001)  cg2d: iter=    76 ; resid.=  4.32850980054258E-08
(PID.TID 0000.0001)  cg2d: iter=    77 ; resid.=  3.37593536906901E-08
(PID.TID 0000.0001)  cg2d: iter=    78 ; resid.=  2.74103084429795E-08
(PID.TID 0000.0001)  cg2d: iter=    79 ; resid.=  2.12365208360261E-08
(PID.TID 0000.0001)  cg2d: iter=    80 ; resid.=  1.43859066920121E-08
(PID.TID 0000.0001)  cg2d: iter=    81 ; resid.=  1.08634151515635E-08
(PID.TID 0000.0001)  cg2d: iter=    82 ; resid.=  8.07664703551138E-09
(PID.TID 0000.0001)  cg2d: iter=    83 ; resid.=  6.28277343221007E-09
(PID.TID 0000.0001)  cg2d: iter=    84 ; resid.=  5.01950086198555E-09
(PID.TID 0000.0001)  cg2d: iter=    85 ; resid.=  3.92847257121342E-09
(PID.TID 0000.0001)  cg2d: iter=    86 ; resid.=  2.92116413375081E-09
(PID.TID 0000.0001)  cg2d: iter=    87 ; resid.=  2.28778091526642E-09
(PID.TID 0000.0001)  cg2d: iter=    88 ; resid.=  1.70435080966604E-09
(PID.TID 0000.0001)  cg2d: iter=    89 ; resid.=  1.39109902582604E-09
(PID.TID 0000.0001)  cg2d: iter=    90 ; resid.=  1.18843008201195E-09
(PID.TID 0000.0001)  cg2d: iter=    91 ; resid.=  1.02495480142702E-09
(PID.TID 0000.0001)  cg2d: iter=    92 ; resid.=  9.14723911137422E-10
(PID.TID 0000.0001)  cg2d: iter=    93 ; resid.=  7.42266546036718E-10
(PID.TID 0000.0001)  cg2d: iter=    94 ; resid.=  6.05978301890069E-10
(PID.TID 0000.0001)  cg2d: iter=    95 ; resid.=  4.57820401543942E-10
(PID.TID 0000.0001)  cg2d: iter=    96 ; resid.=  3.74526340595094E-10
(PID.TID 0000.0001)  cg2d: iter=    97 ; resid.=  3.10604365518860E-10
(PID.TID 0000.0001)  cg2d: iter=    98 ; resid.=  2.45299003811767E-10
(PID.TID 0000.0001)  cg2d: iter=    99 ; resid.=  1.86336498441832E-10
(PID.TID 0000.0001)  cg2d: iter=   100 ; resid.=  1.65748091890136E-10
(PID.TID 0000.0001)  cg2d: iter=   101 ; resid.=  1.46924901800452E-10
(PID.TID 0000.0001)  cg2d: iter=   102 ; resid.=  1.18645657940978E-10
(PID.TID 0000.0001)  cg2d: iter=   103 ; resid.=  8.78446729343799E-11
(PID.TID 0000.0001)  cg2d: iter=   104 ; resid.=  6.07470390361017E-11
(PID.TID 0000.0001)  cg2d: iter=   105 ; resid.=  4.30079753455599E-11
(PID.TID 0000.0001)  cg2d: iter=   106 ; resid.=  3.00049722512073E-11
(PID.TID 0000.0001)  cg2d: iter=   107 ; resid.=  2.26166422354880E-11
(PID.TID 0000.0001)  cg2d: iter=   108 ; resid.=  1.76228380643761E-11
(PID.TID 0000.0001)  cg2d: iter=   109 ; resid.=  1.38763268915140E-11
(PID.TID 0000.0001)  cg2d: iter=   110 ; resid.=  9.59505710288771E-12
(PID.TID 0000.0001)  cg2d: iter=   111 ; resid.=  6.71445692050495E-12
(PID.TID 0000.0001)  cg2d: iter=   112 ; resid.=  5.31168814442138E-12
(PID.TID 0000.0001)  cg2d: iter=   113 ; resid.=  4.16294446063511E-12
(PID.TID 0000.0001)  cg2d: iter=   114 ; resid.=  3.26474435061693E-12
(PID.TID 0000.0001)  cg2d: iter=   115 ; resid.=  2.60315264939900E-12
(PID.TID 0000.0001)  cg2d: iter=   116 ; resid.=  1.78905363281554E-12
(PID.TID 0000.0001)  cg2d: iter=   117 ; resid.=  1.27534461382542E-12
(PID.TID 0000.0001)  cg2d: iter=   118 ; resid.=  1.06117018081310E-12
(PID.TID 0000.0001)  cg2d: iter=   119 ; resid.=  8.69121875516414E-13
(PID.TID 0000.0001)  cg2d: iter=   120 ; resid.=  6.49777173037024E-13
(PID.TID 0000.0001)  cg2d: iter=   121 ; resid.=  4.85837446957124E-13
(PID.TID 0000.0001)  cg2d: iter=   122 ; resid.=  3.64265175049352E-13
(PID.TID 0000.0001)  cg2d: iter=   123 ; resid.=  2.70891660123204E-13
(PID.TID 0000.0001)  cg2d: iter=   124 ; resid.=  1.94339526919380E-13
(PID.TID 0000.0001)  cg2d: iter=   125 ; resid.=  1.38019064339063E-13
(PID.TID 0000.0001)  cg2d: iter=   126 ; resid.=  1.07306075447222E-13
(PID.TID 0000.0001)  cg2d: iter=   127 ; resid.=  7.31538498088599E-14
DEBUG_STATS_RL:    cg2d_x (SOLVE_FOR_PRESSURE)  min= -1.81721050758388E+01
DEBUG_STATS_RL:    cg2d_x (SOLVE_FOR_PRESSURE)  max=  9.02548389863017E+00
DEBUG_STATS_RL:    cg2d_x (SOLVE_FOR_PRESSURE) mean= -1.89248046081127E+00
DEBUG_STATS_RL:    cg2d_x (SOLVE_FOR_PRESSURE) S.D.=  7.27767988724914E+00
(PID.TID 0000.0001)      cg2d_init_res =   1.78310690745990E-01
(PID.TID 0000.0001)      cg2d_iters(min,last) =      -1     127
(PID.TID 0000.0001)      cg2d_last_res =   7.31538498088599E-14
(PID.TID 0000.0001) // =======================================================
(PID.TID 0000.0001) // Begin MONITOR dynamic field statistics
(PID.TID 0000.0001) // =======================================================
(PID.TID 0000.0001) %MON time_tsnumber                =                    92
(PID.TID 0000.0001) %MON time_secondsf                =   7.9488000000000E+06
(PID.TID 0000.0001) %MON dynstat_eta_max              =   9.2002893971762E-01
(PID.TID 0000.0001) %MON dynstat_eta_min              =  -1.8524062258765E+00
(PID.TID 0000.0001) %MON dynstat_eta_mean             =  -5.8079421860054E-03
(PID.TID 0000.0001) %MON dynstat_eta_sd               =   6.4002690923885E-01
(PID.TID 0000.0001) %MON dynstat_eta_del2             =   2.5034990619482E-03
(PID.TID 0000.0001) %MON dynstat_uvel_max             =   1.4605980269924E-01
(PID.TID 0000.0001) %MON dynstat_uvel_min             =  -1.3073923765495E-01
(PID.TID 0000.0001) %MON dynstat_uvel_mean            =   2.7190745846545E-03
(PID.TID 0000.0001) %MON dynstat_uvel_sd              =   1.3648568576931E-02
(PID.TID 0000.0001) %MON dynstat_uvel_del2            =   8.3054829990655E-05
(PID.TID 0000.0001) %MON dynstat_vvel_max             =   1.2257424670547E-01
(PID.TID 0000.0001) %MON dynstat_vvel_min             =  -8.0695826284586E-02
(PID.TID 0000.0001) %MON dynstat_vvel_mean            =   3.2882746822176E-06
(PID.TID 0000.0001) %MON dynstat_vvel_sd              =   7.6080733334192E-03
(PID.TID 0000.0001) %MON dynstat_vvel_del2            =   7.2594503192822E-05
(PID.TID 0000.0001) %MON dynstat_wvel_max             =   1.2400616587029E-04
(PID.TID 0000.0001) %MON dynstat_wvel_min             =  -5.4235096184187E-05
(PID.TID 0000.0001) %MON dynstat_wvel_mean            =  -6.2698078701430E-23
(PID.TID 0000.0001) %MON dynstat_wvel_sd              =   8.9451753349348E-06
(PID.TID 0000.0001) %MON dynstat_wvel_del2            =   8.8341463560356E-08
(PID.TID 0000.0001) %MON dynstat_theta_max            =   3.1242892818855E+01
(PID.TID 0000.0001) %MON dynstat_theta_min            =  -1.9309295927873E+00
(PID.TID 0000.0001) %MON dynstat_theta_mean           =   3.6243732436887E+00
(PID.TID 0000.0001) %MON dynstat_theta_sd             =   4.4288530302179E+00
(PID.TID 0000.0001) %MON dynstat_theta_del2           =   4.8150710600242E-03
(PID.TID 0000.0001) %MON dynstat_salt_max             =   3.7470930542739E+01
(PID.TID 0000.0001) %MON dynstat_salt_min             =   2.9949138386730E+01
(PID.TID 0000.0001) %MON dynstat_salt_mean            =   3.4718005473789E+01
(PID.TID 0000.0001) %MON dynstat_salt_sd              =   2.9667428074981E-01
(PID.TID 0000.0001) %MON dynstat_salt_del2            =   9.9948383292920E-04
(PID.TID 0000.0001) %MON dynstat_sst_max              =   3.1242892818855E+01
(PID.TID 0000.0001) %MON dynstat_sst_min              =  -1.9309295927873E+00
(PID.TID 0000.0001) %MON dynstat_sst_mean             =   1.9040724702620E+01
(PID.TID 0000.0001) %MON dynstat_sst_sd               =   9.2665240679874E+00
(PID.TID 0000.0001) %MON dynstat_sst_del2             =   2.9388865953449E-02
(PID.TID 0000.0001) %MON dynstat_sss_max              =   3.7470930542739E+01
(PID.TID 0000.0001) %MON dynstat_sss_min              =   2.9949138386730E+01
(PID.TID 0000.0001) %MON dynstat_sss_mean             =   3.4836310700448E+01
(PID.TID 0000.0001) %MON dynstat_sss_sd               =   9.9157601489082E-01
(PID.TID 0000.0001) %MON dynstat_sss_del2             =   8.3367067839279E-03
(PID.TID 0000.0001) %MON forcing_qnet_max             =   1.9922393391927E+02
(PID.TID 0000.0001) %MON forcing_qnet_min             =  -1.5700764973958E+02
(PID.TID 0000.0001) %MON forcing_qnet_mean            =  -9.1248312663050E-01
(PID.TID 0000.0001) %MON forcing_qnet_sd              =   3.9520951895878E+01
(PID.TID 0000.0001) %MON forcing_qnet_del2            =   7.8352758501647E-01
(PID.TID 0000.0001) %MON forcing_qsw_max              =   0.0000000000000E+00
(PID.TID 0000.0001) %MON forcing_qsw_min              =   0.0000000000000E+00
(PID.TID 0000.0001) %MON forcing_qsw_mean             =   0.0000000000000E+00
(PID.TID 0000.0001) %MON forcing_qsw_sd               =   0.0000000000000E+00
(PID.TID 0000.0001) %MON forcing_qsw_del2             =   0.0000000000000E+00
(PID.TID 0000.0001) %MON forcing_empmr_max            =   6.7570085586037E-05
(PID.TID 0000.0001) %MON forcing_empmr_min            =  -8.3501954861731E-05
(PID.TID 0000.0001) %MON forcing_empmr_mean           =   1.9158521643765E-07
(PID.TID 0000.0001) %MON forcing_empmr_sd             =   2.5545939064587E-05
(PID.TID 0000.0001) %MON forcing_empmr_del2           =   3.6438848805785E-07
(PID.TID 0000.0001) %MON forcing_fu_max               =   3.4739760756493E-01
(PID.TID 0000.0001) %MON forcing_fu_min               =  -4.0348557233810E-01
(PID.TID 0000.0001) %MON forcing_fu_mean              =   1.8421655749463E-02
(PID.TID 0000.0001) %MON forcing_fu_sd                =   1.0042548414451E-01
(PID.TID 0000.0001) %MON forcing_fu_del2              =   7.7738003749810E-04
(PID.TID 0000.0001) %MON forcing_fv_max               =   1.8176432649295E-01
(PID.TID 0000.0001) %MON forcing_fv_min               =  -1.4326689740022E-01
(PID.TID 0000.0001) %MON forcing_fv_mean              =  -6.9459486820761E-03
(PID.TID 0000.0001) %MON forcing_fv_sd                =   3.8697920486892E-02
(PID.TID 0000.0001) %MON forcing_fv_del2              =   4.1531073929018E-04
(PID.TID 0000.0001) %MON trAdv_CFL_u_max              =   4.2727535588725E-02
(PID.TID 0000.0001) %MON trAdv_CFL_v_max              =   2.3831383393189E-02
(PID.TID 0000.0001) %MON trAdv_CFL_w_max              =   2.6636557320784E-02
(PID.TID 0000.0001) %MON advcfl_uvel_max              =   4.3715836779754E-02
(PID.TID 0000.0001) %MON advcfl_vvel_max              =   2.3814210280302E-02
(PID.TID 0000.0001) %MON advcfl_wvel_max              =   2.8700087378491E-02
(PID.TID 0000.0001) %MON advcfl_W_hf_max              =   3.0810387921027E-02
(PID.TID 0000.0001) %MON pe_b_mean                    =   5.2421981060677E-04
(PID.TID 0000.0001) %MON ke_max                       =   1.2580948695017E-02
(PID.TID 0000.0001) %MON ke_mean                      =   1.1397641905279E-04
(PID.TID 0000.0001) %MON ke_vol                       =   1.3226782436723E+18
(PID.TID 0000.0001) %MON vort_r_min                   =  -3.4889369108199E-07
(PID.TID 0000.0001) %MON vort_r_max                   =   3.6209576738829E-07
(PID.TID 0000.0001) %MON vort_a_mean                  =  -2.5274807013987E-05
(PID.TID 0000.0001) %MON vort_a_sd                    =   7.3604723610706E-05
(PID.TID 0000.0001) %MON vort_p_mean                  =  -3.1845655316316E-05
(PID.TID 0000.0001) %MON vort_p_sd                    =   1.3162502886794E-04
(PID.TID 0000.0001) %MON surfExpan_theta_mean         =   1.4032314990012E-07
(PID.TID 0000.0001) %MON surfExpan_salt_mean          =  -7.5360016248094E-09
(PID.TID 0000.0001) // =======================================================
(PID.TID 0000.0001) // End MONITOR dynamic field statistics
(PID.TID 0000.0001) // =======================================================
 EXTERNAL_FIELDS_LOAD,        92 : iP,iLd,i0,i1=    3    4    3    4 ; Wght=  0.4333333333  0.5666666667
 EXTERNAL_FIELDS_LOAD: (fu0,1),fu,fv= -2.7199E-02 -3.7252E-02 -3.2896E-02 -2.0206E-02
 EXTERNAL_FIELDS_LOAD: SST,SSS,Q,E-P= -5.9668E-02  3.4573E+01  1.5233E+02  8.3375E-06
DEBUG_STATS_RL:          Uvel (THERMODYNAMICS)  min= -1.30739237654952E-01
DEBUG_STATS_RL:          Uvel (THERMODYNAMICS)  max=  1.46059802699243E-01
DEBUG_STATS_RL:          Uvel (THERMODYNAMICS) mean=  6.19310915654270E-03
DEBUG_STATS_RL:          Uvel (THERMODYNAMICS) S.D.=  2.18385347184313E-02
DEBUG_STATS_RL:          Vvel (THERMODYNAMICS)  min= -8.06958262845860E-02
DEBUG_STATS_RL:          Vvel (THERMODYNAMICS)  max=  1.22574246705470E-01
DEBUG_STATS_RL:          Vvel (THERMODYNAMICS) mean=  8.47034272696019E-04
DEBUG_STATS_RL:          Vvel (THERMODYNAMICS) S.D.=  1.24927384993789E-02
DEBUG_STATS_RL:          Wvel (THERMODYNAMICS)  min= -5.42350961841868E-05
DEBUG_STATS_RL:          Wvel (THERMODYNAMICS)  max=  1.24006165870289E-04
DEBUG_STATS_RL:          Wvel (THERMODYNAMICS) mean= -4.67217725048608E-08
DEBUG_STATS_RL:          Wvel (THERMODYNAMICS) S.D.=  7.90604063157337E-06
DEBUG_STATS_RL:         Theta (THERMODYNAMICS)  min= -1.92980268559486E+00
DEBUG_STATS_RL:         Theta (THERMODYNAMICS)  max=  3.12558675177159E+01
DEBUG_STATS_RL:         Theta (THERMODYNAMICS) mean=  3.22005249269756E+00
DEBUG_STATS_RL:         Theta (THERMODYNAMICS) S.D.=  5.88888361829416E+00
DEBUG_STATS_RL:          Salt (THERMODYNAMICS)  min= -3.29597460435593E-17
DEBUG_STATS_RL:          Salt (THERMODYNAMICS)  max=  3.74718069999030E+01
DEBUG_STATS_RL:          Salt (THERMODYNAMICS) mean=  1.88447264128469E+01
DEBUG_STATS_RL:          Salt (THERMODYNAMICS) S.D.=  1.73002890759565E+01
DEBUG_STATS_RL:         GtNm1 (THERMODYNAMICS)  min= -3.01915152224489E-06
DEBUG_STATS_RL:         GtNm1 (THERMODYNAMICS)  max=  3.46377208778148E-06
DEBUG_STATS_RL:         GtNm1 (THERMODYNAMICS) mean= -2.30130907319735E-09
DEBUG_STATS_RL:         GtNm1 (THERMODYNAMICS) S.D.=  1.30175460672441E-07
DEBUG_STATS_RL:         GsNm1 (THERMODYNAMICS)  min= -6.92376919395515E-07
DEBUG_STATS_RL:         GsNm1 (THERMODYNAMICS)  max=  4.78031398283097E-07
DEBUG_STATS_RL:         GsNm1 (THERMODYNAMICS) mean= -2.30802936529309E-10
DEBUG_STATS_RL:         GsNm1 (THERMODYNAMICS) S.D.=  1.38660224807216E-08
DEBUG_STATS_RL:                EtaN (DYNAMICS)  min= -1.85240622587652E+00
DEBUG_STATS_RL:                EtaN (DYNAMICS)  max=  9.20028939717620E-01
DEBUG_STATS_RL:                EtaN (DYNAMICS) mean= -1.92913400694319E-01
DEBUG_STATS_RL:                EtaN (DYNAMICS) S.D.=  7.41863393195629E-01
DEBUG_STATS_RL:                Uvel (DYNAMICS)  min= -1.30739237654952E-01
DEBUG_STATS_RL:                Uvel (DYNAMICS)  max=  1.46059802699243E-01
DEBUG_STATS_RL:                Uvel (DYNAMICS) mean=  6.19310915654270E-03
DEBUG_STATS_RL:                Uvel (DYNAMICS) S.D.=  2.18385347184313E-02
DEBUG_STATS_RL:                Vvel (DYNAMICS)  min= -8.06958262845860E-02
DEBUG_STATS_RL:                Vvel (DYNAMICS)  max=  1.22574246705470E-01
DEBUG_STATS_RL:                Vvel (DYNAMICS) mean=  8.47034272696019E-04
DEBUG_STATS_RL:                Vvel (DYNAMICS) S.D.=  1.24927384993789E-02
DEBUG_STATS_RL:                Wvel (DYNAMICS)  min= -5.42350961841868E-05
DEBUG_STATS_RL:                Wvel (DYNAMICS)  max=  1.24006165870289E-04
DEBUG_STATS_RL:                Wvel (DYNAMICS) mean= -4.67217725048608E-08
DEBUG_STATS_RL:                Wvel (DYNAMICS) S.D.=  7.90604063157337E-06
DEBUG_STATS_RL:               Theta (DYNAMICS)  min= -1.92980268559486E+00
DEBUG_STATS_RL:               Theta (DYNAMICS)  max=  3.12558675177159E+01
DEBUG_STATS_RL:               Theta (DYNAMICS) mean=  3.22005249269756E+00
DEBUG_STATS_RL:               Theta (DYNAMICS) S.D.=  5.88888361829416E+00
DEBUG_STATS_RL:                Salt (DYNAMICS)  min= -3.29597460435593E-17
DEBUG_STATS_RL:                Salt (DYNAMICS)  max=  3.74718069999030E+01
DEBUG_STATS_RL:                Salt (DYNAMICS) mean=  1.88447264128469E+01
DEBUG_STATS_RL:                Salt (DYNAMICS) S.D.=  1.73002890759565E+01
DEBUG_STATS_RL:                  Gu (DYNAMICS)  min= -1.29700792463826E-01
DEBUG_STATS_RL:                  Gu (DYNAMICS)  max=  1.39992537540942E-01
DEBUG_STATS_RL:                  Gu (DYNAMICS) mean=  6.15977765803837E-03
DEBUG_STATS_RL:                  Gu (DYNAMICS) S.D.=  2.22833968536735E-02
DEBUG_STATS_RL:                  Gv (DYNAMICS)  min= -8.02432733740577E-02
DEBUG_STATS_RL:                  Gv (DYNAMICS)  max=  1.22696530599694E-01
DEBUG_STATS_RL:                  Gv (DYNAMICS) mean=  3.51541288824250E-03
DEBUG_STATS_RL:                  Gv (DYNAMICS) S.D.=  1.40874298951133E-02
DEBUG_STATS_RL:               GuNm1 (DYNAMICS)  min= -9.44492715269353E-06
DEBUG_STATS_RL:               GuNm1 (DYNAMICS)  max=  9.96419055039387E-06
DEBUG_STATS_RL:               GuNm1 (DYNAMICS) mean=  1.31084121987994E-08
DEBUG_STATS_RL:               GuNm1 (DYNAMICS) S.D.=  1.22603313986923E-06
DEBUG_STATS_RL:               GvNm1 (DYNAMICS)  min= -9.33406482850800E-06
DEBUG_STATS_RL:               GvNm1 (DYNAMICS)  max=  1.51212156820635E-05
DEBUG_STATS_RL:               GvNm1 (DYNAMICS) mean=  7.38772515184481E-07
DEBUG_STATS_RL:               GvNm1 (DYNAMICS) S.D.=  2.60078436829945E-06
DEBUG_STATS_RL:               GtNm1 (DYNAMICS)  min= -3.01915152224489E-06
DEBUG_STATS_RL:               GtNm1 (DYNAMICS)  max=  3.46377208778148E-06
DEBUG_STATS_RL:               GtNm1 (DYNAMICS) mean= -2.30130907319735E-09
DEBUG_STATS_RL:               GtNm1 (DYNAMICS) S.D.=  1.30175460672441E-07
DEBUG_STATS_RL:               GsNm1 (DYNAMICS)  min= -6.92376919395515E-07
DEBUG_STATS_RL:               GsNm1 (DYNAMICS)  max=  4.78031398283097E-07
DEBUG_STATS_RL:               GsNm1 (DYNAMICS) mean= -2.30802936529309E-10
DEBUG_STATS_RL:               GsNm1 (DYNAMICS) S.D.=  1.38660224807216E-08
DEBUG_STATS_RL:    cg2d_b (SOLVE_FOR_PRESSURE)  min= -2.73859546872569E+04
DEBUG_STATS_RL:    cg2d_b (SOLVE_FOR_PRESSURE)  max=  2.91770100684208E+04
DEBUG_STATS_RL:    cg2d_b (SOLVE_FOR_PRESSURE) mean=  5.58002260337508E+00
DEBUG_STATS_RL:    cg2d_b (SOLVE_FOR_PRESSURE) S.D.=  3.97784289462690E+03
 cg2d: Sum(rhs),rhsMax =   4.42737357135753E-01  1.91642414057083E+00
(PID.TID 0000.0001)  cg2d: iter=     1 ; resid.=  4.40712543430803E-02
(PID.TID 0000.0001)  cg2d: iter=     2 ; resid.=  2.37904983029125E-02
(PID.TID 0000.0001)  cg2d: iter=     3 ; resid.=  1.86132515195851E-02
(PID.TID 0000.0001)  cg2d: iter=     4 ; resid.=  2.11997871710734E-02
(PID.TID 0000.0001)  cg2d: iter=     5 ; resid.=  1.95559161981807E-02
(PID.TID 0000.0001)  cg2d: iter=     6 ; resid.=  1.78099450593168E-02
(PID.TID 0000.0001)  cg2d: iter=     7 ; resid.=  1.48660582295162E-02
(PID.TID 0000.0001)  cg2d: iter=     8 ; resid.=  1.22090816749127E-02
(PID.TID 0000.0001)  cg2d: iter=     9 ; resid.=  1.00924204177343E-02
(PID.TID 0000.0001)  cg2d: iter=    10 ; resid.=  7.55580607958654E-03
(PID.TID 0000.0001)  cg2d: iter=    11 ; resid.=  5.70272209038783E-03
(PID.TID 0000.0001)  cg2d: iter=    12 ; resid.=  4.71841464005207E-03
(PID.TID 0000.0001)  cg2d: iter=    13 ; resid.=  4.05987848369384E-03
(PID.TID 0000.0001)  cg2d: iter=    14 ; resid.=  3.54165033299123E-03
(PID.TID 0000.0001)  cg2d: iter=    15 ; resid.=  3.00846836263456E-03
(PID.TID 0000.0001)  cg2d: iter=    16 ; resid.=  2.38457337666688E-03
(PID.TID 0000.0001)  cg2d: iter=    17 ; resid.=  2.09760523898291E-03
(PID.TID 0000.0001)  cg2d: iter=    18 ; resid.=  1.77253749258797E-03
(PID.TID 0000.0001)  cg2d: iter=    19 ; resid.=  1.47417213938165E-03
(PID.TID 0000.0001)  cg2d: iter=    20 ; resid.=  1.16830774061235E-03
(PID.TID 0000.0001)  cg2d: iter=    21 ; resid.=  9.43130714801681E-04
(PID.TID 0000.0001)  cg2d: iter=    22 ; resid.=  7.71516323525624E-04
(PID.TID 0000.0001)  cg2d: iter=    23 ; resid.=  6.02883064371083E-04
(PID.TID 0000.0001)  cg2d: iter=    24 ; resid.=  5.43941336650497E-04
(PID.TID 0000.0001)  cg2d: iter=    25 ; resid.=  5.20621854073986E-04
(PID.TID 0000.0001)  cg2d: iter=    26 ; resid.=  4.22032384041820E-04
(PID.TID 0000.0001)  cg2d: iter=    27 ; resid.=  3.43040261520075E-04
(PID.TID 0000.0001)  cg2d: iter=    28 ; resid.=  2.80554993829190E-04
(PID.TID 0000.0001)  cg2d: iter=    29 ; resid.=  2.22889940006554E-04
(PID.TID 0000.0001)  cg2d: iter=    30 ; resid.=  1.78655639098940E-04
(PID.TID 0000.0001)  cg2d: iter=    31 ; resid.=  1.40403821538638E-04
(PID.TID 0000.0001)  cg2d: iter=    32 ; resid.=  1.14949541725097E-04
(PID.TID 0000.0001)  cg2d: iter=    33 ; resid.=  8.41747792892096E-05
(PID.TID 0000.0001)  cg2d: iter=    34 ; resid.=  6.83782523001329E-05
(PID.TID 0000.0001)  cg2d: iter=    35 ; resid.=  5.46645969128437E-05
(PID.TID 0000.0001)  cg2d: iter=    36 ; resid.=  4.11276538346474E-05
(PID.TID 0000.0001)  cg2d: iter=    37 ; resid.=  3.41606327912656E-05
(PID.TID 0000.0001)  cg2d: iter=    38 ; resid.=  3.15715347946776E-05
(PID.TID 0000.0001)  cg2d: iter=    39 ; resid.=  2.87670371819395E-05
(PID.TID 0000.0001)  cg2d: iter=    40 ; resid.=  2.37625349697718E-05
(PID.TID 0000.0001)  cg2d: iter=    41 ; resid.=  1.84786152718311E-05
(PID.TID 0000.0001)  cg2d: iter=    42 ; resid.=  1.46725415340183E-05
(PID.TID 0000.0001)  cg2d: iter=    43 ; resid.=  1.27595204430307E-05
(PID.TID 0000.0001)  cg2d: iter=    44 ; resid.=  1.07889197756381E-05
(PID.TID 0000.0001)  cg2d: iter=    45 ; resid.=  8.89389440424608E-06
(PID.TID 0000.0001)  cg2d: iter=    46 ; resid.=  7.40052232159660E-06
(PID.TID 0000.0001)  cg2d: iter=    47 ; resid.=  6.21060189980870E-06
(PID.TID 0000.0001)  cg2d: iter=    48 ; resid.=  5.40248984626426E-06
(PID.TID 0000.0001)  cg2d: iter=    49 ; resid.=  4.67256722724004E-06
(PID.TID 0000.0001)  cg2d: iter=    50 ; resid.=  3.78636913494755E-06
(PID.TID 0000.0001)  cg2d: iter=    51 ; resid.=  3.03910513238798E-06
(PID.TID 0000.0001)  cg2d: iter=    52 ; resid.=  2.56471970598750E-06
(PID.TID 0000.0001)  cg2d: iter=    53 ; resid.=  2.24495977722818E-06
(PID.TID 0000.0001)  cg2d: iter=    54 ; resid.=  2.13971743862733E-06
(PID.TID 0000.0001)  cg2d: iter=    55 ; resid.=  1.92756427781175E-06
(PID.TID 0000.0001)  cg2d: iter=    56 ; resid.=  1.61142767831540E-06
(PID.TID 0000.0001)  cg2d: iter=    57 ; resid.=  1.34201045062907E-06
(PID.TID 0000.0001)  cg2d: iter=    58 ; resid.=  1.08168663640785E-06
(PID.TID 0000.0001)  cg2d: iter=    59 ; resid.=  8.49169848795591E-07
(PID.TID 0000.0001)  cg2d: iter=    60 ; resid.=  6.60172526132863E-07
(PID.TID 0000.0001)  cg2d: iter=    61 ; resid.=  5.24550904866275E-07
(PID.TID 0000.0001)  cg2d: iter=    62 ; resid.=  4.30297276370181E-07
(PID.TID 0000.0001)  cg2d: iter=    63 ; resid.=  3.67269188295134E-07
(PID.TID 0000.0001)  cg2d: iter=    64 ; resid.=  3.12720077812833E-07
(PID.TID 0000.0001)  cg2d: iter=    65 ; resid.=  2.63918800144795E-07
(PID.TID 0000.0001)  cg2d: iter=    66 ; resid.=  2.13346753237342E-07
(PID.TID 0000.0001)  cg2d: iter=    67 ; resid.=  1.69421913883930E-07
(PID.TID 0000.0001)  cg2d: iter=    68 ; resid.=  1.44497653460231E-07
(PID.TID 0000.0001)  cg2d: iter=    69 ; resid.=  1.17627371929762E-07
(PID.TID 0000.0001)  cg2d: iter=    70 ; resid.=  9.44263275313651E-08
(PID.TID 0000.0001)  cg2d: iter=    71 ; resid.=  8.12999001657139E-08
(PID.TID 0000.0001)  cg2d: iter=    72 ; resid.=  6.78274587805055E-08
(PID.TID 0000.0001)  cg2d: iter=    73 ; resid.=  6.47937141196711E-08
(PID.TID 0000.0001)  cg2d: iter=    74 ; resid.=  5.83911069007331E-08
(PID.TID 0000.0001)  cg2d: iter=    75 ; resid.=  4.96973853823025E-08
(PID.TID 0000.0001)  cg2d: iter=    76 ; resid.=  4.00344667947350E-08
(PID.TID 0000.0001)  cg2d: iter=    77 ; resid.=  3.19289475982463E-08
(PID.TID 0000.0001)  cg2d: iter=    78 ; resid.=  2.62713372429629E-08
(PID.TID 0000.0001)  cg2d: iter=    79 ; resid.=  2.07906518346176E-08
(PID.TID 0000.0001)  cg2d: iter=    80 ; resid.=  1.44945040598559E-08
(PID.TID 0000.0001)  cg2d: iter=    81 ; resid.=  1.12987557507891E-08
(PID.TID 0000.0001)  cg2d: iter=    82 ; resid.=  8.66728349537105E-09
(PID.TID 0000.0001)  cg2d: iter=    83 ; resid.=  6.69601897374927E-09
(PID.TID 0000.0001)  cg2d: iter=    84 ; resid.=  5.17656513937876E-09
(PID.TID 0000.0001)  cg2d: iter=    85 ; resid.=  3.93847558147429E-09
(PID.TID 0000.0001)  cg2d: iter=    86 ; resid.=  2.81390467168399E-09
(PID.TID 0000.0001)  cg2d: iter=    87 ; resid.=  2.16198786790575E-09
(PID.TID 0000.0001)  cg2d: iter=    88 ; resid.=  1.63448145135697E-09
(PID.TID 0000.0001)  cg2d: iter=    89 ; resid.=  1.37089170424976E-09
(PID.TID 0000.0001)  cg2d: iter=    90 ; resid.=  1.21330642655888E-09
(PID.TID 0000.0001)  cg2d: iter=    91 ; resid.=  1.09072979100773E-09
(PID.TID 0000.0001)  cg2d: iter=    92 ; resid.=  9.67229573150081E-10
(PID.TID 0000.0001)  cg2d: iter=    93 ; resid.=  7.57666112671396E-10
(PID.TID 0000.0001)  cg2d: iter=    94 ; resid.=  6.04831439963719E-10
(PID.TID 0000.0001)  cg2d: iter=    95 ; resid.=  4.48141845377197E-10
(PID.TID 0000.0001)  cg2d: iter=    96 ; resid.=  3.60253198195596E-10
(PID.TID 0000.0001)  cg2d: iter=    97 ; resid.=  3.01579220748999E-10
(PID.TID 0000.0001)  cg2d: iter=    98 ; resid.=  2.43202492345272E-10
(PID.TID 0000.0001)  cg2d: iter=    99 ; resid.=  1.88291843856199E-10
(PID.TID 0000.0001)  cg2d: iter=   100 ; resid.=  1.68846988628136E-10
(PID.TID 0000.0001)  cg2d: iter=   101 ; resid.=  1.45800555647859E-10
(PID.TID 0000.0001)  cg2d: iter=   102 ; resid.=  1.15159217516551E-10
(PID.TID 0000.0001)  cg2d: iter=   103 ; resid.=  8.37031720854517E-11
(PID.TID 0000.0001)  cg2d: iter=   104 ; resid.=  5.71158174030411E-11
(PID.TID 0000.0001)  cg2d: iter=   105 ; resid.=  4.04496444892731E-11
(PID.TID 0000.0001)  cg2d: iter=   106 ; resid.=  2.82173718507940E-11
(PID.TID 0000.0001)  cg2d: iter=   107 ; resid.=  2.12887366803262E-11
(PID.TID 0000.0001)  cg2d: iter=   108 ; resid.=  1.68784480034492E-11
(PID.TID 0000.0001)  cg2d: iter=   109 ; resid.=  1.35767513648967E-11
(PID.TID 0000.0001)  cg2d: iter=   110 ; resid.=  9.61074813196626E-12
(PID.TID 0000.0001)  cg2d: iter=   111 ; resid.=  6.74059725106636E-12
(PID.TID 0000.0001)  cg2d: iter=   112 ; resid.=  5.30421640470745E-12
(PID.TID 0000.0001)  cg2d: iter=   113 ; resid.=  4.12157400203851E-12
(PID.TID 0000.0001)  cg2d: iter=   114 ; resid.=  3.19309465537121E-12
(PID.TID 0000.0001)  cg2d: iter=   115 ; resid.=  2.52949445677854E-12
(PID.TID 0000.0001)  cg2d: iter=   116 ; resid.=  1.75467134594430E-12
(PID.TID 0000.0001)  cg2d: iter=   117 ; resid.=  1.26932749331718E-12
(PID.TID 0000.0001)  cg2d: iter=   118 ; resid.=  1.07221753066095E-12
(PID.TID 0000.0001)  cg2d: iter=   119 ; resid.=  9.05766470809413E-13
(PID.TID 0000.0001)  cg2d: iter=   120 ; resid.=  6.69850512600252E-13
(PID.TID 0000.0001)  cg2d: iter=   121 ; resid.=  4.98607988500283E-13
(PID.TID 0000.0001)  cg2d: iter=   122 ; resid.=  3.71212904024865E-13
(PID.TID 0000.0001)  cg2d: iter=   123 ; resid.=  2.75983784438378E-13
(PID.TID 0000.0001)  cg2d: iter=   124 ; resid.=  1.94913123914355E-13
(PID.TID 0000.0001)  cg2d: iter=   125 ; resid.=  1.39291211198141E-13
(PID.TID 0000.0001)  cg2d: iter=   126 ; resid.=  1.09310624279772E-13
(PID.TID 0000.0001)  cg2d: iter=   127 ; resid.=  7.65811065287961E-14
DEBUG_STATS_RL:    cg2d_x (SOLVE_FOR_PRESSURE)  min= -1.82141310120034E+01
DEBUG_STATS_RL:    cg2d_x (SOLVE_FOR_PRESSURE)  max=  9.04584192934897E+00
DEBUG_STATS_RL:    cg2d_x (SOLVE_FOR_PRESSURE) mean= -1.89626987686141E+00
DEBUG_STATS_RL:    cg2d_x (SOLVE_FOR_PRESSURE) S.D.=  7.29601631857262E+00
(PID.TID 0000.0001)      cg2d_init_res =   1.74511442689463E-01
(PID.TID 0000.0001)      cg2d_iters(min,last) =      -1     127
(PID.TID 0000.0001)      cg2d_last_res =   7.65811065287961E-14
(PID.TID 0000.0001) // =======================================================
(PID.TID 0000.0001) // Begin MONITOR dynamic field statistics
(PID.TID 0000.0001) // =======================================================
(PID.TID 0000.0001) %MON time_tsnumber                =                    93
(PID.TID 0000.0001) %MON time_secondsf                =   8.0352000000000E+06
(PID.TID 0000.0001) %MON dynstat_eta_max              =   9.2210417220681E-01
(PID.TID 0000.0001) %MON dynstat_eta_min              =  -1.8566902152892E+00
(PID.TID 0000.0001) %MON dynstat_eta_mean             =  -5.8220616866617E-03
(PID.TID 0000.0001) %MON dynstat_eta_sd               =   6.4201571686340E-01
(PID.TID 0000.0001) %MON dynstat_eta_del2             =   2.5074702332900E-03
(PID.TID 0000.0001) %MON dynstat_uvel_max             =   1.4203160883947E-01
(PID.TID 0000.0001) %MON dynstat_uvel_min             =  -1.3022608507510E-01
(PID.TID 0000.0001) %MON dynstat_uvel_mean            =   2.7197352987580E-03
(PID.TID 0000.0001) %MON dynstat_uvel_sd              =   1.3658138655545E-02
(PID.TID 0000.0001) %MON dynstat_uvel_del2            =   8.3125179283323E-05
(PID.TID 0000.0001) %MON dynstat_vvel_max             =   1.2201559671652E-01
(PID.TID 0000.0001) %MON dynstat_vvel_min             =  -8.2259610683025E-02
(PID.TID 0000.0001) %MON dynstat_vvel_mean            =   4.0498023284632E-06
(PID.TID 0000.0001) %MON dynstat_vvel_sd              =   7.5859357714027E-03
(PID.TID 0000.0001) %MON dynstat_vvel_del2            =   7.2708338335695E-05
(PID.TID 0000.0001) %MON dynstat_wvel_max             =   1.2656788510936E-04
(PID.TID 0000.0001) %MON dynstat_wvel_min             =  -5.4796422934784E-05
(PID.TID 0000.0001) %MON dynstat_wvel_mean            =   7.9705807019378E-23
(PID.TID 0000.0001) %MON dynstat_wvel_sd              =   8.8999794405541E-06
(PID.TID 0000.0001) %MON dynstat_wvel_del2            =   8.7801994573752E-08
(PID.TID 0000.0001) %MON dynstat_theta_max            =   3.1255867517716E+01
(PID.TID 0000.0001) %MON dynstat_theta_min            =  -1.9298026855949E+00
(PID.TID 0000.0001) %MON dynstat_theta_mean           =   3.6243722287833E+00
(PID.TID 0000.0001) %MON dynstat_theta_sd             =   4.4288906281544E+00
(PID.TID 0000.0001) %MON dynstat_theta_del2           =   4.8116252095132E-03
(PID.TID 0000.0001) %MON dynstat_salt_max             =   3.7471806999903E+01
(PID.TID 0000.0001) %MON dynstat_salt_min             =   2.9951992864554E+01
(PID.TID 0000.0001) %MON dynstat_salt_mean            =   3.4718006020889E+01
(PID.TID 0000.0001) %MON dynstat_salt_sd              =   2.9668311255516E-01
(PID.TID 0000.0001) %MON dynstat_salt_del2            =   9.9966111998237E-04
(PID.TID 0000.0001) %MON dynstat_sst_max              =   3.1255867517716E+01
(PID.TID 0000.0001) %MON dynstat_sst_min              =  -1.9298026855949E+00
(PID.TID 0000.0001) %MON dynstat_sst_mean             =   1.9037685920108E+01
(PID.TID 0000.0001) %MON dynstat_sst_sd               =   9.2737286361987E+00
(PID.TID 0000.0001) %MON dynstat_sst_del2             =   2.9409049740071E-02
(PID.TID 0000.0001) %MON dynstat_sss_max              =   3.7471806999903E+01
(PID.TID 0000.0001) %MON dynstat_sss_min              =   2.9951992864554E+01
(PID.TID 0000.0001) %MON dynstat_sss_mean             =   3.4836120207806E+01
(PID.TID 0000.0001) %MON dynstat_sss_sd               =   9.9201098028797E-01
(PID.TID 0000.0001) %MON dynstat_sss_del2             =   8.3450474267773E-03
(PID.TID 0000.0001) %MON forcing_qnet_max             =   1.9451869913737E+02
(PID.TID 0000.0001) %MON forcing_qnet_min             =  -1.5657965342204E+02
(PID.TID 0000.0001) %MON forcing_qnet_mean            =  -5.1544669766086E-01
(PID.TID 0000.0001) %MON forcing_qnet_sd              =   3.9728111557903E+01
(PID.TID 0000.0001) %MON forcing_qnet_del2            =   7.8346921016286E-01
(PID.TID 0000.0001) %MON forcing_qsw_max              =   0.0000000000000E+00
(PID.TID 0000.0001) %MON forcing_qsw_min              =   0.0000000000000E+00
(PID.TID 0000.0001) %MON forcing_qsw_mean             =   0.0000000000000E+00
(PID.TID 0000.0001) %MON forcing_qsw_sd               =   0.0000000000000E+00
(PID.TID 0000.0001) %MON forcing_qsw_del2             =   0.0000000000000E+00
(PID.TID 0000.0001) %MON forcing_empmr_max            =   6.7473914574142E-05
(PID.TID 0000.0001) %MON forcing_empmr_min            =  -8.3516800941652E-05
(PID.TID 0000.0001) %MON forcing_empmr_mean           =   1.6913985161008E-07
(PID.TID 0000.0001) %MON forcing_empmr_sd             =   2.5530162049708E-05
(PID.TID 0000.0001) %MON forcing_empmr_del2           =   3.6488800752658E-07
(PID.TID 0000.0001) %MON forcing_fu_max               =   3.4690555334091E-01
(PID.TID 0000.0001) %MON forcing_fu_min               =  -4.0441864430904E-01
(PID.TID 0000.0001) %MON forcing_fu_mean              =   1.8294463652530E-02
(PID.TID 0000.0001) %MON forcing_fu_sd                =   1.0052224849844E-01
(PID.TID 0000.0001) %MON forcing_fu_del2              =   7.7883912812643E-04
(PID.TID 0000.0001) %MON forcing_fv_max               =   1.8166832526525E-01
(PID.TID 0000.0001) %MON forcing_fv_min               =  -1.4357230017583E-01
(PID.TID 0000.0001) %MON forcing_fv_mean              =  -6.9094720097030E-03
(PID.TID 0000.0001) %MON forcing_fv_sd                =   3.8668513823794E-02
(PID.TID 0000.0001) %MON forcing_fv_del2              =   4.1497869888265E-04
(PID.TID 0000.0001) %MON trAdv_CFL_u_max              =   4.3724715778865E-02
(PID.TID 0000.0001) %MON trAdv_CFL_v_max              =   2.3775508512490E-02
(PID.TID 0000.0001) %MON trAdv_CFL_w_max              =   2.6860338187562E-02
(PID.TID 0000.0001) %MON advcfl_uvel_max              =   4.4605060501174E-02
(PID.TID 0000.0001) %MON advcfl_vvel_max              =   2.3705673547117E-02
(PID.TID 0000.0001) %MON advcfl_wvel_max              =   2.9385975838511E-02
(PID.TID 0000.0001) %MON advcfl_W_hf_max              =   3.1546709356048E-02
(PID.TID 0000.0001) %MON pe_b_mean                    =   5.2748271546362E-04
(PID.TID 0000.0001) %MON ke_max                       =   1.2088956213537E-02
(PID.TID 0000.0001) %MON ke_mean                      =   1.1394577310872E-04
(PID.TID 0000.0001) %MON ke_vol                       =   1.3226782436723E+18
(PID.TID 0000.0001) %MON vort_r_min                   =  -3.5025018204232E-07
(PID.TID 0000.0001) %MON vort_r_max                   =   3.6097278485638E-07
(PID.TID 0000.0001) %MON vort_a_mean                  =  -2.5274807020221E-05
(PID.TID 0000.0001) %MON vort_a_sd                    =   7.3604722659752E-05
(PID.TID 0000.0001) %MON vort_p_mean                  =  -3.1845655324172E-05
(PID.TID 0000.0001) %MON vort_p_sd                    =   1.3162506901210E-04
(PID.TID 0000.0001) %MON surfExpan_theta_mean         =   1.2685759980402E-07
(PID.TID 0000.0001) %MON surfExpan_salt_mean          =  -5.3640497273996E-09
(PID.TID 0000.0001) // =======================================================
(PID.TID 0000.0001) // End MONITOR dynamic field statistics
(PID.TID 0000.0001) // =======================================================
 EXTERNAL_FIELDS_LOAD,        93 : iP,iLd,i0,i1=    3    4    3    4 ; Wght=  0.4000000000  0.6000000000
 EXTERNAL_FIELDS_LOAD: (fu0,1),fu,fv= -2.7199E-02 -3.7252E-02 -3.3231E-02 -2.1361E-02
 EXTERNAL_FIELDS_LOAD: SST,SSS,Q,E-P= -5.2360E-02  3.4573E+01  1.4862E+02  8.2938E-06
DEBUG_STATS_RL:          Uvel (THERMODYNAMICS)  min= -1.30226085075099E-01
DEBUG_STATS_RL:          Uvel (THERMODYNAMICS)  max=  1.42031608839469E-01
DEBUG_STATS_RL:          Uvel (THERMODYNAMICS) mean=  6.20027272991416E-03
DEBUG_STATS_RL:          Uvel (THERMODYNAMICS) S.D.=  2.18815778662450E-02
DEBUG_STATS_RL:          Vvel (THERMODYNAMICS)  min= -8.22596106830251E-02
DEBUG_STATS_RL:          Vvel (THERMODYNAMICS)  max=  1.22015596716518E-01
DEBUG_STATS_RL:          Vvel (THERMODYNAMICS) mean=  8.36264149858532E-04
DEBUG_STATS_RL:          Vvel (THERMODYNAMICS) S.D.=  1.24632427126378E-02
DEBUG_STATS_RL:          Wvel (THERMODYNAMICS)  min= -5.47964229347842E-05
DEBUG_STATS_RL:          Wvel (THERMODYNAMICS)  max=  1.26567885109356E-04
DEBUG_STATS_RL:          Wvel (THERMODYNAMICS) mean= -4.61495694441069E-08
DEBUG_STATS_RL:          Wvel (THERMODYNAMICS) S.D.=  7.86461524983421E-06
DEBUG_STATS_RL:         Theta (THERMODYNAMICS)  min= -1.92873013492699E+00
DEBUG_STATS_RL:         Theta (THERMODYNAMICS)  max=  3.12682350390875E+01
DEBUG_STATS_RL:         Theta (THERMODYNAMICS) mean=  3.21988097764963E+00
DEBUG_STATS_RL:         Theta (THERMODYNAMICS) S.D.=  5.88887083030785E+00
DEBUG_STATS_RL:          Salt (THERMODYNAMICS)  min= -3.29597460435593E-17
DEBUG_STATS_RL:          Salt (THERMODYNAMICS)  max=  3.74726878828409E+01
DEBUG_STATS_RL:          Salt (THERMODYNAMICS) mean=  1.88447186410166E+01
DEBUG_STATS_RL:          Salt (THERMODYNAMICS) S.D.=  1.73002828392769E+01
DEBUG_STATS_RL:         GtNm1 (THERMODYNAMICS)  min= -2.93658333040760E-06
DEBUG_STATS_RL:         GtNm1 (THERMODYNAMICS)  max=  1.93280984984266E-06
DEBUG_STATS_RL:         GtNm1 (THERMODYNAMICS) mean= -2.46459356382669E-09
DEBUG_STATS_RL:         GtNm1 (THERMODYNAMICS) S.D.=  1.26600634127569E-07
DEBUG_STATS_RL:         GsNm1 (THERMODYNAMICS)  min= -6.13757857327931E-07
DEBUG_STATS_RL:         GsNm1 (THERMODYNAMICS)  max=  4.24316210376397E-07
DEBUG_STATS_RL:         GsNm1 (THERMODYNAMICS) mean= -2.39525514982764E-10
DEBUG_STATS_RL:         GsNm1 (THERMODYNAMICS) S.D.=  1.28566662360370E-08
DEBUG_STATS_RL:                EtaN (DYNAMICS)  min= -1.85669021528915E+00
DEBUG_STATS_RL:                EtaN (DYNAMICS)  max=  9.22104172206813E-01
DEBUG_STATS_RL:                EtaN (DYNAMICS) mean= -1.93299681637248E-01
DEBUG_STATS_RL:                EtaN (DYNAMICS) S.D.=  7.43732550313209E-01
DEBUG_STATS_RL:                Uvel (DYNAMICS)  min= -1.30226085075099E-01
DEBUG_STATS_RL:                Uvel (DYNAMICS)  max=  1.42031608839469E-01
DEBUG_STATS_RL:                Uvel (DYNAMICS) mean=  6.20027272991416E-03
DEBUG_STATS_RL:                Uvel (DYNAMICS) S.D.=  2.18815778662450E-02
DEBUG_STATS_RL:                Vvel (DYNAMICS)  min= -8.22596106830251E-02
DEBUG_STATS_RL:                Vvel (DYNAMICS)  max=  1.22015596716518E-01
DEBUG_STATS_RL:                Vvel (DYNAMICS) mean=  8.36264149858532E-04
DEBUG_STATS_RL:                Vvel (DYNAMICS) S.D.=  1.24632427126378E-02
DEBUG_STATS_RL:                Wvel (DYNAMICS)  min= -5.47964229347842E-05
DEBUG_STATS_RL:                Wvel (DYNAMICS)  max=  1.26567885109356E-04
DEBUG_STATS_RL:                Wvel (DYNAMICS) mean= -4.61495694441069E-08
DEBUG_STATS_RL:                Wvel (DYNAMICS) S.D.=  7.86461524983421E-06
DEBUG_STATS_RL:               Theta (DYNAMICS)  min= -1.92873013492699E+00
DEBUG_STATS_RL:               Theta (DYNAMICS)  max=  3.12682350390875E+01
DEBUG_STATS_RL:               Theta (DYNAMICS) mean=  3.21988097764963E+00
DEBUG_STATS_RL:               Theta (DYNAMICS) S.D.=  5.88887083030785E+00
DEBUG_STATS_RL:                Salt (DYNAMICS)  min= -3.29597460435593E-17
DEBUG_STATS_RL:                Salt (DYNAMICS)  max=  3.74726878828409E+01
DEBUG_STATS_RL:                Salt (DYNAMICS) mean=  1.88447186410166E+01
DEBUG_STATS_RL:                Salt (DYNAMICS) S.D.=  1.73002828392769E+01
DEBUG_STATS_RL:                  Gu (DYNAMICS)  min= -1.29184704181717E-01
DEBUG_STATS_RL:                  Gu (DYNAMICS)  max=  1.35559226388471E-01
DEBUG_STATS_RL:                  Gu (DYNAMICS) mean=  6.17048406470911E-03
DEBUG_STATS_RL:                  Gu (DYNAMICS) S.D.=  2.23370391795357E-02
DEBUG_STATS_RL:                  Gv (DYNAMICS)  min= -8.17816024999139E-02
DEBUG_STATS_RL:                  Gv (DYNAMICS)  max=  1.22102505514757E-01
DEBUG_STATS_RL:                  Gv (DYNAMICS) mean=  3.50835549365184E-03
DEBUG_STATS_RL:                  Gv (DYNAMICS) S.D.=  1.40541263761075E-02
DEBUG_STATS_RL:               GuNm1 (DYNAMICS)  min= -9.41139316490846E-06
DEBUG_STATS_RL:               GuNm1 (DYNAMICS)  max=  1.00572360046898E-05
DEBUG_STATS_RL:               GuNm1 (DYNAMICS) mean=  1.35940526148131E-08
DEBUG_STATS_RL:               GuNm1 (DYNAMICS) S.D.=  1.22678790822927E-06
DEBUG_STATS_RL:               GvNm1 (DYNAMICS)  min= -9.33445004653547E-06
DEBUG_STATS_RL:               GvNm1 (DYNAMICS)  max=  1.50895977998089E-05
DEBUG_STATS_RL:               GvNm1 (DYNAMICS) mean=  7.38946089524157E-07
DEBUG_STATS_RL:               GvNm1 (DYNAMICS) S.D.=  2.60015688061922E-06
DEBUG_STATS_RL:               GtNm1 (DYNAMICS)  min= -2.93658333040760E-06
DEBUG_STATS_RL:               GtNm1 (DYNAMICS)  max=  1.93280984984266E-06
DEBUG_STATS_RL:               GtNm1 (DYNAMICS) mean= -2.46459356382669E-09
DEBUG_STATS_RL:               GtNm1 (DYNAMICS) S.D.=  1.26600634127569E-07
DEBUG_STATS_RL:               GsNm1 (DYNAMICS)  min= -6.13757857327931E-07
DEBUG_STATS_RL:               GsNm1 (DYNAMICS)  max=  4.24316210376397E-07
DEBUG_STATS_RL:               GsNm1 (DYNAMICS) mean= -2.39525514982764E-10
DEBUG_STATS_RL:               GsNm1 (DYNAMICS) S.D.=  1.28566662360370E-08
DEBUG_STATS_RL:    cg2d_b (SOLVE_FOR_PRESSURE)  min= -2.75824922299480E+04
DEBUG_STATS_RL:    cg2d_b (SOLVE_FOR_PRESSURE)  max=  2.93198836647547E+04
DEBUG_STATS_RL:    cg2d_b (SOLVE_FOR_PRESSURE) mean=  5.59175931247000E+00
DEBUG_STATS_RL:    cg2d_b (SOLVE_FOR_PRESSURE) S.D.=  3.98504650262654E+03
 cg2d: Sum(rhs),rhsMax =   4.41506622481163E-01  1.92580846091148E+00
(PID.TID 0000.0001)  cg2d: iter=     1 ; resid.=  4.27834420596121E-02
(PID.TID 0000.0001)  cg2d: iter=     2 ; resid.=  2.26866874633054E-02
(PID.TID 0000.0001)  cg2d: iter=     3 ; resid.=  1.73462971111994E-02
(PID.TID 0000.0001)  cg2d: iter=     4 ; resid.=  1.95404670011235E-02
(PID.TID 0000.0001)  cg2d: iter=     5 ; resid.=  1.81968899903431E-02
(PID.TID 0000.0001)  cg2d: iter=     6 ; resid.=  1.66048365041848E-02
(PID.TID 0000.0001)  cg2d: iter=     7 ; resid.=  1.38223710419695E-02
(PID.TID 0000.0001)  cg2d: iter=     8 ; resid.=  1.14654331892534E-02
(PID.TID 0000.0001)  cg2d: iter=     9 ; resid.=  9.62068159914750E-03
(PID.TID 0000.0001)  cg2d: iter=    10 ; resid.=  7.28864194969830E-03
(PID.TID 0000.0001)  cg2d: iter=    11 ; resid.=  5.55655860298925E-03
(PID.TID 0000.0001)  cg2d: iter=    12 ; resid.=  4.60029601191919E-03
(PID.TID 0000.0001)  cg2d: iter=    13 ; resid.=  3.97241118024047E-03
(PID.TID 0000.0001)  cg2d: iter=    14 ; resid.=  3.45969530054003E-03
(PID.TID 0000.0001)  cg2d: iter=    15 ; resid.=  2.90919016320130E-03
(PID.TID 0000.0001)  cg2d: iter=    16 ; resid.=  2.28333633472093E-03
(PID.TID 0000.0001)  cg2d: iter=    17 ; resid.=  2.00093692094895E-03
(PID.TID 0000.0001)  cg2d: iter=    18 ; resid.=  1.69427681645287E-03
(PID.TID 0000.0001)  cg2d: iter=    19 ; resid.=  1.40272036954652E-03
(PID.TID 0000.0001)  cg2d: iter=    20 ; resid.=  1.11712501817388E-03
(PID.TID 0000.0001)  cg2d: iter=    21 ; resid.=  9.00283012074045E-04
(PID.TID 0000.0001)  cg2d: iter=    22 ; resid.=  7.43962779878093E-04
(PID.TID 0000.0001)  cg2d: iter=    23 ; resid.=  5.69830487068931E-04
(PID.TID 0000.0001)  cg2d: iter=    24 ; resid.=  5.08113636539695E-04
(PID.TID 0000.0001)  cg2d: iter=    25 ; resid.=  4.88900636123450E-04
(PID.TID 0000.0001)  cg2d: iter=    26 ; resid.=  4.02783410967307E-04
(PID.TID 0000.0001)  cg2d: iter=    27 ; resid.=  3.28492156174966E-04
(PID.TID 0000.0001)  cg2d: iter=    28 ; resid.=  2.72077327160680E-04
(PID.TID 0000.0001)  cg2d: iter=    29 ; resid.=  2.17295499444418E-04
(PID.TID 0000.0001)  cg2d: iter=    30 ; resid.=  1.73753268775916E-04
(PID.TID 0000.0001)  cg2d: iter=    31 ; resid.=  1.37942418636705E-04
(PID.TID 0000.0001)  cg2d: iter=    32 ; resid.=  1.12561435489843E-04
(PID.TID 0000.0001)  cg2d: iter=    33 ; resid.=  8.14163347124908E-05
(PID.TID 0000.0001)  cg2d: iter=    34 ; resid.=  6.57150776091982E-05
(PID.TID 0000.0001)  cg2d: iter=    35 ; resid.=  5.23301203969268E-05
(PID.TID 0000.0001)  cg2d: iter=    36 ; resid.=  3.85796135730928E-05
(PID.TID 0000.0001)  cg2d: iter=    37 ; resid.=  3.16707837226723E-05
(PID.TID 0000.0001)  cg2d: iter=    38 ; resid.=  2.95944257457797E-05
(PID.TID 0000.0001)  cg2d: iter=    39 ; resid.=  2.70995652789463E-05
(PID.TID 0000.0001)  cg2d: iter=    40 ; resid.=  2.27676624075182E-05
(PID.TID 0000.0001)  cg2d: iter=    41 ; resid.=  1.79617777486187E-05
(PID.TID 0000.0001)  cg2d: iter=    42 ; resid.=  1.44074948690167E-05
(PID.TID 0000.0001)  cg2d: iter=    43 ; resid.=  1.25759275075030E-05
(PID.TID 0000.0001)  cg2d: iter=    44 ; resid.=  1.06894131664020E-05
(PID.TID 0000.0001)  cg2d: iter=    45 ; resid.=  8.86427491062608E-06
(PID.TID 0000.0001)  cg2d: iter=    46 ; resid.=  7.46936333813269E-06
(PID.TID 0000.0001)  cg2d: iter=    47 ; resid.=  6.33386288800837E-06
(PID.TID 0000.0001)  cg2d: iter=    48 ; resid.=  5.45901087631478E-06
(PID.TID 0000.0001)  cg2d: iter=    49 ; resid.=  4.75332694291612E-06
(PID.TID 0000.0001)  cg2d: iter=    50 ; resid.=  3.89058695784338E-06
(PID.TID 0000.0001)  cg2d: iter=    51 ; resid.=  3.13618279015074E-06
(PID.TID 0000.0001)  cg2d: iter=    52 ; resid.=  2.67944384574430E-06
(PID.TID 0000.0001)  cg2d: iter=    53 ; resid.=  2.32704101479195E-06
(PID.TID 0000.0001)  cg2d: iter=    54 ; resid.=  2.18933739179914E-06
(PID.TID 0000.0001)  cg2d: iter=    55 ; resid.=  1.95327269268619E-06
(PID.TID 0000.0001)  cg2d: iter=    56 ; resid.=  1.60470473024599E-06
(PID.TID 0000.0001)  cg2d: iter=    57 ; resid.=  1.31319184373993E-06
(PID.TID 0000.0001)  cg2d: iter=    58 ; resid.=  1.03854649757204E-06
(PID.TID 0000.0001)  cg2d: iter=    59 ; resid.=  8.26609087243048E-07
(PID.TID 0000.0001)  cg2d: iter=    60 ; resid.=  6.52740520886529E-07
(PID.TID 0000.0001)  cg2d: iter=    61 ; resid.=  5.21580431452719E-07
(PID.TID 0000.0001)  cg2d: iter=    62 ; resid.=  4.21674024973640E-07
(PID.TID 0000.0001)  cg2d: iter=    63 ; resid.=  3.55814258130911E-07
(PID.TID 0000.0001)  cg2d: iter=    64 ; resid.=  3.02939485467523E-07
(PID.TID 0000.0001)  cg2d: iter=    65 ; resid.=  2.52729021992785E-07
(PID.TID 0000.0001)  cg2d: iter=    66 ; resid.=  2.00844322446681E-07
(PID.TID 0000.0001)  cg2d: iter=    67 ; resid.=  1.58666453907614E-07
(PID.TID 0000.0001)  cg2d: iter=    68 ; resid.=  1.36400217401157E-07
(PID.TID 0000.0001)  cg2d: iter=    69 ; resid.=  1.11931988272221E-07
(PID.TID 0000.0001)  cg2d: iter=    70 ; resid.=  9.18989240451776E-08
(PID.TID 0000.0001)  cg2d: iter=    71 ; resid.=  7.88552819527384E-08
(PID.TID 0000.0001)  cg2d: iter=    72 ; resid.=  6.38832856820935E-08
(PID.TID 0000.0001)  cg2d: iter=    73 ; resid.=  5.97325207548905E-08
(PID.TID 0000.0001)  cg2d: iter=    74 ; resid.=  5.25117414572399E-08
(PID.TID 0000.0001)  cg2d: iter=    75 ; resid.=  4.42566597460885E-08
(PID.TID 0000.0001)  cg2d: iter=    76 ; resid.=  3.64517195868949E-08
(PID.TID 0000.0001)  cg2d: iter=    77 ; resid.=  3.02540111182355E-08
(PID.TID 0000.0001)  cg2d: iter=    78 ; resid.=  2.52723965312304E-08
(PID.TID 0000.0001)  cg2d: iter=    79 ; resid.=  2.04680737052614E-08
(PID.TID 0000.0001)  cg2d: iter=    80 ; resid.=  1.45556862124869E-08
(PID.TID 0000.0001)  cg2d: iter=    81 ; resid.=  1.16028371891442E-08
(PID.TID 0000.0001)  cg2d: iter=    82 ; resid.=  9.04406279787727E-09
(PID.TID 0000.0001)  cg2d: iter=    83 ; resid.=  6.89180167814680E-09
(PID.TID 0000.0001)  cg2d: iter=    84 ; resid.=  5.13079272253885E-09
(PID.TID 0000.0001)  cg2d: iter=    85 ; resid.=  3.83570880988368E-09
(PID.TID 0000.0001)  cg2d: iter=    86 ; resid.=  2.67982395263199E-09
(PID.TID 0000.0001)  cg2d: iter=    87 ; resid.=  2.03598268441844E-09
(PID.TID 0000.0001)  cg2d: iter=    88 ; resid.=  1.55428966210442E-09
(PID.TID 0000.0001)  cg2d: iter=    89 ; resid.=  1.31800381968612E-09
(PID.TID 0000.0001)  cg2d: iter=    90 ; resid.=  1.18468239740491E-09
(PID.TID 0000.0001)  cg2d: iter=    91 ; resid.=  1.08949591105090E-09
(PID.TID 0000.0001)  cg2d: iter=    92 ; resid.=  9.64957790709347E-10
(PID.TID 0000.0001)  cg2d: iter=    93 ; resid.=  7.36354342636031E-10
(PID.TID 0000.0001)  cg2d: iter=    94 ; resid.=  5.83050346009072E-10
(PID.TID 0000.0001)  cg2d: iter=    95 ; resid.=  4.31025698175407E-10
(PID.TID 0000.0001)  cg2d: iter=    96 ; resid.=  3.44538743166382E-10
(PID.TID 0000.0001)  cg2d: iter=    97 ; resid.=  2.89494703303891E-10
(PID.TID 0000.0001)  cg2d: iter=    98 ; resid.=  2.37546234934308E-10
(PID.TID 0000.0001)  cg2d: iter=    99 ; resid.=  1.84462072446472E-10
(PID.TID 0000.0001)  cg2d: iter=   100 ; resid.=  1.63001864381704E-10
(PID.TID 0000.0001)  cg2d: iter=   101 ; resid.=  1.37701204610555E-10
(PID.TID 0000.0001)  cg2d: iter=   102 ; resid.=  1.08105264177691E-10
(PID.TID 0000.0001)  cg2d: iter=   103 ; resid.=  7.87906713616784E-11
(PID.TID 0000.0001)  cg2d: iter=   104 ; resid.=  5.47829557269747E-11
(PID.TID 0000.0001)  cg2d: iter=   105 ; resid.=  4.00334961196339E-11
(PID.TID 0000.0001)  cg2d: iter=   106 ; resid.=  2.84968798469772E-11
(PID.TID 0000.0001)  cg2d: iter=   107 ; resid.=  2.17339638195928E-11
(PID.TID 0000.0001)  cg2d: iter=   108 ; resid.=  1.72672681522110E-11
(PID.TID 0000.0001)  cg2d: iter=   109 ; resid.=  1.36203158111534E-11
(PID.TID 0000.0001)  cg2d: iter=   110 ; resid.=  9.55853564170829E-12
(PID.TID 0000.0001)  cg2d: iter=   111 ; resid.=  6.61416009690073E-12
(PID.TID 0000.0001)  cg2d: iter=   112 ; resid.=  5.15334020643164E-12
(PID.TID 0000.0001)  cg2d: iter=   113 ; resid.=  4.07271547928033E-12
(PID.TID 0000.0001)  cg2d: iter=   114 ; resid.=  3.20681458215614E-12
(PID.TID 0000.0001)  cg2d: iter=   115 ; resid.=  2.58676797715285E-12
(PID.TID 0000.0001)  cg2d: iter=   116 ; resid.=  1.86912738372349E-12
(PID.TID 0000.0001)  cg2d: iter=   117 ; resid.=  1.37938621339594E-12
(PID.TID 0000.0001)  cg2d: iter=   118 ; resid.=  1.14777797856977E-12
(PID.TID 0000.0001)  cg2d: iter=   119 ; resid.=  9.67335819891016E-13
(PID.TID 0000.0001)  cg2d: iter=   120 ; resid.=  6.92747279043670E-13
(PID.TID 0000.0001)  cg2d: iter=   121 ; resid.=  5.04097019274153E-13
(PID.TID 0000.0001)  cg2d: iter=   122 ; resid.=  3.76773283204821E-13
(PID.TID 0000.0001)  cg2d: iter=   123 ; resid.=  2.87077494334020E-13
(PID.TID 0000.0001)  cg2d: iter=   124 ; resid.=  2.06872273040482E-13
(PID.TID 0000.0001)  cg2d: iter=   125 ; resid.=  1.53973823554812E-13
(PID.TID 0000.0001)  cg2d: iter=   126 ; resid.=  1.23834489728319E-13
(PID.TID 0000.0001)  cg2d: iter=   127 ; resid.=  8.84884403596640E-14
DEBUG_STATS_RL:    cg2d_x (SOLVE_FOR_PRESSURE)  min= -1.82559644076882E+01
DEBUG_STATS_RL:    cg2d_x (SOLVE_FOR_PRESSURE)  max=  9.05998104962529E+00
DEBUG_STATS_RL:    cg2d_x (SOLVE_FOR_PRESSURE) mean= -1.89952765091064E+00
DEBUG_STATS_RL:    cg2d_x (SOLVE_FOR_PRESSURE) S.D.=  7.31232585330996E+00
(PID.TID 0000.0001)      cg2d_init_res =   1.70599558592780E-01
(PID.TID 0000.0001)      cg2d_iters(min,last) =      -1     127
(PID.TID 0000.0001)      cg2d_last_res =   8.84884403596640E-14
(PID.TID 0000.0001) // =======================================================
(PID.TID 0000.0001) // Begin MONITOR dynamic field statistics
(PID.TID 0000.0001) // =======================================================
(PID.TID 0000.0001) %MON time_tsnumber                =                    94
(PID.TID 0000.0001) %MON time_secondsf                =   8.1216000000000E+06
(PID.TID 0000.0001) %MON dynstat_eta_max              =   9.2354546887119E-01
(PID.TID 0000.0001) %MON dynstat_eta_min              =  -1.8609545777466E+00
(PID.TID 0000.0001) %MON dynstat_eta_mean             =  -5.8343074872977E-03
(PID.TID 0000.0001) %MON dynstat_eta_sd               =   6.4378576703411E-01
(PID.TID 0000.0001) %MON dynstat_eta_del2             =   2.5114113291732E-03
(PID.TID 0000.0001) %MON dynstat_uvel_max             =   1.3771570627148E-01
(PID.TID 0000.0001) %MON dynstat_uvel_min             =  -1.2959654428073E-01
(PID.TID 0000.0001) %MON dynstat_uvel_mean            =   2.7193991152620E-03
(PID.TID 0000.0001) %MON dynstat_uvel_sd              =   1.3672286166766E-02
(PID.TID 0000.0001) %MON dynstat_uvel_del2            =   8.3219039109068E-05
(PID.TID 0000.0001) %MON dynstat_vvel_max             =   1.2165983959478E-01
(PID.TID 0000.0001) %MON dynstat_vvel_min             =  -8.3837506862255E-02
(PID.TID 0000.0001) %MON dynstat_vvel_mean            =   4.7114529063524E-06
(PID.TID 0000.0001) %MON dynstat_vvel_sd              =   7.5633060552994E-03
(PID.TID 0000.0001) %MON dynstat_vvel_del2            =   7.2757416459659E-05
(PID.TID 0000.0001) %MON dynstat_wvel_max             =   1.2971067657883E-04
(PID.TID 0000.0001) %MON dynstat_wvel_min             =  -5.5459359979469E-05
(PID.TID 0000.0001) %MON dynstat_wvel_mean            =   7.5049611674073E-23
(PID.TID 0000.0001) %MON dynstat_wvel_sd              =   8.8599129330941E-06
(PID.TID 0000.0001) %MON dynstat_wvel_del2            =   8.7276069725706E-08
(PID.TID 0000.0001) %MON dynstat_theta_max            =   3.1268235039088E+01
(PID.TID 0000.0001) %MON dynstat_theta_min            =  -1.9287301349270E+00
(PID.TID 0000.0001) %MON dynstat_theta_mean           =   3.6243693234100E+00
(PID.TID 0000.0001) %MON dynstat_theta_sd             =   4.4289203202418E+00
(PID.TID 0000.0001) %MON dynstat_theta_del2           =   4.8080774735414E-03
(PID.TID 0000.0001) %MON dynstat_salt_max             =   3.7472687882841E+01
(PID.TID 0000.0001) %MON dynstat_salt_min             =   2.9954859395566E+01
(PID.TID 0000.0001) %MON dynstat_salt_mean            =   3.4718006496048E+01
(PID.TID 0000.0001) %MON dynstat_salt_sd              =   2.9669183132856E-01
(PID.TID 0000.0001) %MON dynstat_salt_del2            =   9.9974908063308E-04
(PID.TID 0000.0001) %MON dynstat_sst_max              =   3.1268235039088E+01
(PID.TID 0000.0001) %MON dynstat_sst_min              =  -1.9287301349270E+00
(PID.TID 0000.0001) %MON dynstat_sst_mean             =   1.9034356984237E+01
(PID.TID 0000.0001) %MON dynstat_sst_sd               =   9.2809937817297E+00
(PID.TID 0000.0001) %MON dynstat_sst_del2             =   2.9424558442561E-02
(PID.TID 0000.0001) %MON dynstat_sss_max              =   3.7472687882841E+01
(PID.TID 0000.0001) %MON dynstat_sss_min              =   2.9954859395566E+01
(PID.TID 0000.0001) %MON dynstat_sss_mean             =   3.4835911529606E+01
(PID.TID 0000.0001) %MON dynstat_sss_sd               =   9.9244675785883E-01
(PID.TID 0000.0001) %MON dynstat_sss_del2             =   8.3520408547536E-03
(PID.TID 0000.0001) %MON forcing_qnet_max             =   1.8981346435547E+02
(PID.TID 0000.0001) %MON forcing_qnet_min             =  -1.5615165710449E+02
(PID.TID 0000.0001) %MON forcing_qnet_mean            =  -1.1841026869120E-01
(PID.TID 0000.0001) %MON forcing_qnet_sd              =   4.0013480692075E+01
(PID.TID 0000.0001) %MON forcing_qnet_del2            =   7.8393243873400E-01
(PID.TID 0000.0001) %MON forcing_qsw_max              =   0.0000000000000E+00
(PID.TID 0000.0001) %MON forcing_qsw_min              =   0.0000000000000E+00
(PID.TID 0000.0001) %MON forcing_qsw_mean             =   0.0000000000000E+00
(PID.TID 0000.0001) %MON forcing_qsw_sd               =   0.0000000000000E+00
(PID.TID 0000.0001) %MON forcing_qsw_del2             =   0.0000000000000E+00
(PID.TID 0000.0001) %MON forcing_empmr_max            =   6.7377743562247E-05
(PID.TID 0000.0001) %MON forcing_empmr_min            =  -8.3531647021573E-05
(PID.TID 0000.0001) %MON forcing_empmr_mean           =   1.4669448678252E-07
(PID.TID 0000.0001) %MON forcing_empmr_sd             =   2.5518064463179E-05
(PID.TID 0000.0001) %MON forcing_empmr_del2           =   3.6546096507275E-07
(PID.TID 0000.0001) %MON forcing_fu_max               =   3.4641349911690E-01
(PID.TID 0000.0001) %MON forcing_fu_min               =  -4.0535171627998E-01
(PID.TID 0000.0001) %MON forcing_fu_mean              =   1.8167271555597E-02
(PID.TID 0000.0001) %MON forcing_fu_sd                =   1.0064293488596E-01
(PID.TID 0000.0001) %MON forcing_fu_del2              =   7.8101122025666E-04
(PID.TID 0000.0001) %MON forcing_fv_max               =   1.8157232403755E-01
(PID.TID 0000.0001) %MON forcing_fv_min               =  -1.4387770295143E-01
(PID.TID 0000.0001) %MON forcing_fv_mean              =  -6.8729953373301E-03
(PID.TID 0000.0001) %MON forcing_fv_sd                =   3.8666482891470E-02
(PID.TID 0000.0001) %MON forcing_fv_del2              =   4.1536218314166E-04
(PID.TID 0000.0001) %MON trAdv_CFL_u_max              =   4.4614120107982E-02
(PID.TID 0000.0001) %MON trAdv_CFL_v_max              =   2.3667148168251E-02
(PID.TID 0000.0001) %MON trAdv_CFL_w_max              =   2.7502259438606E-02
(PID.TID 0000.0001) %MON advcfl_uvel_max              =   4.5348509989267E-02
(PID.TID 0000.0001) %MON advcfl_vvel_max              =   2.3636555644022E-02
(PID.TID 0000.0001) %MON advcfl_wvel_max              =   3.0225645464122E-02
(PID.TID 0000.0001) %MON advcfl_W_hf_max              =   3.2448119395307E-02
(PID.TID 0000.0001) %MON pe_b_mean                    =   5.3039522889095E-04
(PID.TID 0000.0001) %MON ke_max                       =   1.1530634258265E-02
(PID.TID 0000.0001) %MON ke_mean                      =   1.1396670103016E-04
(PID.TID 0000.0001) %MON ke_vol                       =   1.3226782436723E+18
(PID.TID 0000.0001) %MON vort_r_min                   =  -3.5174496874668E-07
(PID.TID 0000.0001) %MON vort_r_max                   =   3.6008466572901E-07
(PID.TID 0000.0001) %MON vort_a_mean                  =  -2.5274807027512E-05
(PID.TID 0000.0001) %MON vort_a_sd                    =   7.3604721506512E-05
(PID.TID 0000.0001) %MON vort_p_mean                  =  -3.1845655333357E-05
(PID.TID 0000.0001) %MON vort_p_sd                    =   1.3162510956585E-04
(PID.TID 0000.0001) %MON surfExpan_theta_mean         =   1.1300881956050E-07
(PID.TID 0000.0001) %MON surfExpan_salt_mean          =  -2.8469609760444E-09
(PID.TID 0000.0001) // =======================================================
(PID.TID 0000.0001) // End MONITOR dynamic field statistics
(PID.TID 0000.0001) // =======================================================
 EXTERNAL_FIELDS_LOAD,        94 : iP,iLd,i0,i1=    3    4    3    4 ; Wght=  0.3666666667  0.6333333333
 EXTERNAL_FIELDS_LOAD: (fu0,1),fu,fv= -2.7199E-02 -3.7252E-02 -3.3566E-02 -2.2515E-02
 EXTERNAL_FIELDS_LOAD: SST,SSS,Q,E-P= -4.5052E-02  3.4573E+01  1.4491E+02  8.2500E-06
DEBUG_STATS_RL:          Uvel (THERMODYNAMICS)  min= -1.29596544280728E-01
DEBUG_STATS_RL:          Uvel (THERMODYNAMICS)  max=  1.37715706271479E-01
DEBUG_STATS_RL:          Uvel (THERMODYNAMICS) mean=  6.20711538903030E-03
DEBUG_STATS_RL:          Uvel (THERMODYNAMICS) S.D.=  2.19325969459962E-02
DEBUG_STATS_RL:          Vvel (THERMODYNAMICS)  min= -8.38375068622555E-02
DEBUG_STATS_RL:          Vvel (THERMODYNAMICS)  max=  1.21659839594782E-01
DEBUG_STATS_RL:          Vvel (THERMODYNAMICS) mean=  8.29699380823114E-04
DEBUG_STATS_RL:          Vvel (THERMODYNAMICS) S.D.=  1.24337585587127E-02
DEBUG_STATS_RL:          Wvel (THERMODYNAMICS)  min= -5.54593599794691E-05
DEBUG_STATS_RL:          Wvel (THERMODYNAMICS)  max=  1.29710676578825E-04
DEBUG_STATS_RL:          Wvel (THERMODYNAMICS) mean= -4.43079546172262E-08
DEBUG_STATS_RL:          Wvel (THERMODYNAMICS) S.D.=  7.82702927497268E-06
DEBUG_STATS_RL:         Theta (THERMODYNAMICS)  min= -1.92761276930380E+00
DEBUG_STATS_RL:         Theta (THERMODYNAMICS)  max=  3.12800227168986E+01
DEBUG_STATS_RL:         Theta (THERMODYNAMICS) mean=  3.21970290949773E+00
DEBUG_STATS_RL:         Theta (THERMODYNAMICS) S.D.=  5.88883935533892E+00
DEBUG_STATS_RL:          Salt (THERMODYNAMICS)  min= -3.29597460435593E-17
DEBUG_STATS_RL:          Salt (THERMODYNAMICS)  max=  3.74735738447742E+01
DEBUG_STATS_RL:          Salt (THERMODYNAMICS) mean=  1.88447109335450E+01
DEBUG_STATS_RL:          Salt (THERMODYNAMICS) S.D.=  1.73002766474320E+01
DEBUG_STATS_RL:         GtNm1 (THERMODYNAMICS)  min= -2.86257903653767E-06
DEBUG_STATS_RL:         GtNm1 (THERMODYNAMICS)  max=  1.90707318793828E-06
DEBUG_STATS_RL:         GtNm1 (THERMODYNAMICS) mean= -2.58370402028409E-09
DEBUG_STATS_RL:         GtNm1 (THERMODYNAMICS) S.D.=  1.25486347537196E-07
DEBUG_STATS_RL:         GsNm1 (THERMODYNAMICS)  min= -3.70955075412006E-07
DEBUG_STATS_RL:         GsNm1 (THERMODYNAMICS)  max=  2.52872078627415E-07
DEBUG_STATS_RL:         GsNm1 (THERMODYNAMICS) mean= -2.38265772122697E-10
DEBUG_STATS_RL:         GsNm1 (THERMODYNAMICS) S.D.=  1.23144230124688E-08
DEBUG_STATS_RL:                EtaN (DYNAMICS)  min= -1.86095457774664E+00
DEBUG_STATS_RL:                EtaN (DYNAMICS)  max=  9.23545468871194E-01
DEBUG_STATS_RL:                EtaN (DYNAMICS) mean= -1.93631768696293E-01
DEBUG_STATS_RL:                EtaN (DYNAMICS) S.D.=  7.45395092080520E-01
DEBUG_STATS_RL:                Uvel (DYNAMICS)  min= -1.29596544280728E-01
DEBUG_STATS_RL:                Uvel (DYNAMICS)  max=  1.37715706271479E-01
DEBUG_STATS_RL:                Uvel (DYNAMICS) mean=  6.20711538903030E-03
DEBUG_STATS_RL:                Uvel (DYNAMICS) S.D.=  2.19325969459962E-02
DEBUG_STATS_RL:                Vvel (DYNAMICS)  min= -8.38375068622555E-02
DEBUG_STATS_RL:                Vvel (DYNAMICS)  max=  1.21659839594782E-01
DEBUG_STATS_RL:                Vvel (DYNAMICS) mean=  8.29699380823114E-04
DEBUG_STATS_RL:                Vvel (DYNAMICS) S.D.=  1.24337585587127E-02
DEBUG_STATS_RL:                Wvel (DYNAMICS)  min= -5.54593599794691E-05
DEBUG_STATS_RL:                Wvel (DYNAMICS)  max=  1.29710676578825E-04
DEBUG_STATS_RL:                Wvel (DYNAMICS) mean= -4.43079546172262E-08
DEBUG_STATS_RL:                Wvel (DYNAMICS) S.D.=  7.82702927497268E-06
DEBUG_STATS_RL:               Theta (DYNAMICS)  min= -1.92761276930380E+00
DEBUG_STATS_RL:               Theta (DYNAMICS)  max=  3.12800227168986E+01
DEBUG_STATS_RL:               Theta (DYNAMICS) mean=  3.21970290949773E+00
DEBUG_STATS_RL:               Theta (DYNAMICS) S.D.=  5.88883935533892E+00
DEBUG_STATS_RL:                Salt (DYNAMICS)  min= -3.29597460435593E-17
DEBUG_STATS_RL:                Salt (DYNAMICS)  max=  3.74735738447742E+01
DEBUG_STATS_RL:                Salt (DYNAMICS) mean=  1.88447109335450E+01
DEBUG_STATS_RL:                Salt (DYNAMICS) S.D.=  1.73002766474320E+01
DEBUG_STATS_RL:                  Gu (DYNAMICS)  min= -1.28553430653744E-01
DEBUG_STATS_RL:                  Gu (DYNAMICS)  max=  1.33048595827844E-01
DEBUG_STATS_RL:                  Gu (DYNAMICS) mean=  6.17988411780795E-03
DEBUG_STATS_RL:                  Gu (DYNAMICS) S.D.=  2.23954876294477E-02
DEBUG_STATS_RL:                  Gv (DYNAMICS)  min= -8.31012503388630E-02
DEBUG_STATS_RL:                  Gv (DYNAMICS)  max=  1.21703804604923E-01
DEBUG_STATS_RL:                  Gv (DYNAMICS) mean=  3.50472905943647E-03
DEBUG_STATS_RL:                  Gv (DYNAMICS) S.D.=  1.40237238423646E-02
DEBUG_STATS_RL:               GuNm1 (DYNAMICS)  min= -9.37894685412610E-06
DEBUG_STATS_RL:               GuNm1 (DYNAMICS)  max=  1.01377710664481E-05
DEBUG_STATS_RL:               GuNm1 (DYNAMICS) mean=  1.40770559767706E-08
DEBUG_STATS_RL:               GuNm1 (DYNAMICS) S.D.=  1.22757499927316E-06
DEBUG_STATS_RL:               GvNm1 (DYNAMICS)  min= -9.33793652770739E-06
DEBUG_STATS_RL:               GvNm1 (DYNAMICS)  max=  1.50609380354360E-05
DEBUG_STATS_RL:               GvNm1 (DYNAMICS) mean=  7.39136781800869E-07
DEBUG_STATS_RL:               GvNm1 (DYNAMICS) S.D.=  2.59958180128415E-06
DEBUG_STATS_RL:               GtNm1 (DYNAMICS)  min= -2.86257903653767E-06
DEBUG_STATS_RL:               GtNm1 (DYNAMICS)  max=  1.90707318793828E-06
DEBUG_STATS_RL:               GtNm1 (DYNAMICS) mean= -2.58370402028409E-09
DEBUG_STATS_RL:               GtNm1 (DYNAMICS) S.D.=  1.25486347537196E-07
DEBUG_STATS_RL:               GsNm1 (DYNAMICS)  min= -3.70955075412006E-07
DEBUG_STATS_RL:               GsNm1 (DYNAMICS)  max=  2.52872078627415E-07
DEBUG_STATS_RL:               GsNm1 (DYNAMICS) mean= -2.38265772122697E-10
DEBUG_STATS_RL:               GsNm1 (DYNAMICS) S.D.=  1.23144230124688E-08
DEBUG_STATS_RL:    cg2d_b (SOLVE_FOR_PRESSURE)  min= -2.77939875815121E+04
DEBUG_STATS_RL:    cg2d_b (SOLVE_FOR_PRESSURE)  max=  2.94637095114281E+04
DEBUG_STATS_RL:    cg2d_b (SOLVE_FOR_PRESSURE) mean=  5.60170021639615E+00
DEBUG_STATS_RL:    cg2d_b (SOLVE_FOR_PRESSURE) S.D.=  3.99196881671043E+03
 cg2d: Sum(rhs),rhsMax =   4.40132495737690E-01  1.93525532760401E+00
(PID.TID 0000.0001)  cg2d: iter=     1 ; resid.=  4.17399576418796E-02
(PID.TID 0000.0001)  cg2d: iter=     2 ; resid.=  2.16608031263653E-02
(PID.TID 0000.0001)  cg2d: iter=     3 ; resid.=  1.59788191540689E-02
(PID.TID 0000.0001)  cg2d: iter=     4 ; resid.=  1.75525962214283E-02
(PID.TID 0000.0001)  cg2d: iter=     5 ; resid.=  1.65718945162938E-02
(PID.TID 0000.0001)  cg2d: iter=     6 ; resid.=  1.52134452069537E-02
(PID.TID 0000.0001)  cg2d: iter=     7 ; resid.=  1.26684560701497E-02
(PID.TID 0000.0001)  cg2d: iter=     8 ; resid.=  1.06218311561027E-02
(PID.TID 0000.0001)  cg2d: iter=     9 ; resid.=  9.03806528049945E-03
(PID.TID 0000.0001)  cg2d: iter=    10 ; resid.=  6.98015744625194E-03
(PID.TID 0000.0001)  cg2d: iter=    11 ; resid.=  5.41478661145273E-03
(PID.TID 0000.0001)  cg2d: iter=    12 ; resid.=  4.45882472035265E-03
(PID.TID 0000.0001)  cg2d: iter=    13 ; resid.=  3.83986485689698E-03
(PID.TID 0000.0001)  cg2d: iter=    14 ; resid.=  3.32616706296194E-03
(PID.TID 0000.0001)  cg2d: iter=    15 ; resid.=  2.77793444613070E-03
(PID.TID 0000.0001)  cg2d: iter=    16 ; resid.=  2.16664408636886E-03
(PID.TID 0000.0001)  cg2d: iter=    17 ; resid.=  1.87831176139420E-03
(PID.TID 0000.0001)  cg2d: iter=    18 ; resid.=  1.59272334950142E-03
(PID.TID 0000.0001)  cg2d: iter=    19 ; resid.=  1.32188849953016E-03
(PID.TID 0000.0001)  cg2d: iter=    20 ; resid.=  1.06252052779495E-03
(PID.TID 0000.0001)  cg2d: iter=    21 ; resid.=  8.52576555957960E-04
(PID.TID 0000.0001)  cg2d: iter=    22 ; resid.=  7.07875166119262E-04
(PID.TID 0000.0001)  cg2d: iter=    23 ; resid.=  5.31622049544588E-04
(PID.TID 0000.0001)  cg2d: iter=    24 ; resid.=  4.65506453432679E-04
(PID.TID 0000.0001)  cg2d: iter=    25 ; resid.=  4.48657247613409E-04
(PID.TID 0000.0001)  cg2d: iter=    26 ; resid.=  3.76197224931679E-04
(PID.TID 0000.0001)  cg2d: iter=    27 ; resid.=  3.08664445372641E-04
(PID.TID 0000.0001)  cg2d: iter=    28 ; resid.=  2.59707730540698E-04
(PID.TID 0000.0001)  cg2d: iter=    29 ; resid.=  2.09752827779115E-04
(PID.TID 0000.0001)  cg2d: iter=    30 ; resid.=  1.67711433743558E-04
(PID.TID 0000.0001)  cg2d: iter=    31 ; resid.=  1.34113168982004E-04
(PID.TID 0000.0001)  cg2d: iter=    32 ; resid.=  1.09249303789909E-04
(PID.TID 0000.0001)  cg2d: iter=    33 ; resid.=  7.88773105471888E-05
(PID.TID 0000.0001)  cg2d: iter=    34 ; resid.=  6.31124318095836E-05
(PID.TID 0000.0001)  cg2d: iter=    35 ; resid.=  4.99718923381154E-05
(PID.TID 0000.0001)  cg2d: iter=    36 ; resid.=  3.59326654495174E-05
(PID.TID 0000.0001)  cg2d: iter=    37 ; resid.=  2.88224290855604E-05
(PID.TID 0000.0001)  cg2d: iter=    38 ; resid.=  2.69948736273246E-05
(PID.TID 0000.0001)  cg2d: iter=    39 ; resid.=  2.48597019900419E-05
(PID.TID 0000.0001)  cg2d: iter=    40 ; resid.=  2.13192755953037E-05
(PID.TID 0000.0001)  cg2d: iter=    41 ; resid.=  1.70708565475803E-05
(PID.TID 0000.0001)  cg2d: iter=    42 ; resid.=  1.38916302616885E-05
(PID.TID 0000.0001)  cg2d: iter=    43 ; resid.=  1.22138383641195E-05
(PID.TID 0000.0001)  cg2d: iter=    44 ; resid.=  1.05369145814225E-05
(PID.TID 0000.0001)  cg2d: iter=    45 ; resid.=  8.79301423290202E-06
(PID.TID 0000.0001)  cg2d: iter=    46 ; resid.=  7.44345715518454E-06
(PID.TID 0000.0001)  cg2d: iter=    47 ; resid.=  6.31667277067234E-06
(PID.TID 0000.0001)  cg2d: iter=    48 ; resid.=  5.38189570757292E-06
(PID.TID 0000.0001)  cg2d: iter=    49 ; resid.=  4.71387445618099E-06
(PID.TID 0000.0001)  cg2d: iter=    50 ; resid.=  3.89478148863993E-06
(PID.TID 0000.0001)  cg2d: iter=    51 ; resid.=  3.15015356067947E-06
(PID.TID 0000.0001)  cg2d: iter=    52 ; resid.=  2.69379567251676E-06
(PID.TID 0000.0001)  cg2d: iter=    53 ; resid.=  2.30743394609187E-06
(PID.TID 0000.0001)  cg2d: iter=    54 ; resid.=  2.12500631945904E-06
(PID.TID 0000.0001)  cg2d: iter=    55 ; resid.=  1.87299558101911E-06
(PID.TID 0000.0001)  cg2d: iter=    56 ; resid.=  1.51406924599672E-06
(PID.TID 0000.0001)  cg2d: iter=    57 ; resid.=  1.23390654111182E-06
(PID.TID 0000.0001)  cg2d: iter=    58 ; resid.=  9.69718652342272E-07
(PID.TID 0000.0001)  cg2d: iter=    59 ; resid.=  7.85039933316321E-07
(PID.TID 0000.0001)  cg2d: iter=    60 ; resid.=  6.29880614174296E-07
(PID.TID 0000.0001)  cg2d: iter=    61 ; resid.=  5.05322423634557E-07
(PID.TID 0000.0001)  cg2d: iter=    62 ; resid.=  4.00722275806439E-07
(PID.TID 0000.0001)  cg2d: iter=    63 ; resid.=  3.32787339287262E-07
(PID.TID 0000.0001)  cg2d: iter=    64 ; resid.=  2.83150610740032E-07
(PID.TID 0000.0001)  cg2d: iter=    65 ; resid.=  2.35333526485992E-07
(PID.TID 0000.0001)  cg2d: iter=    66 ; resid.=  1.85390675011698E-07
(PID.TID 0000.0001)  cg2d: iter=    67 ; resid.=  1.45345833410159E-07
(PID.TID 0000.0001)  cg2d: iter=    68 ; resid.=  1.25867835447268E-07
(PID.TID 0000.0001)  cg2d: iter=    69 ; resid.=  1.04167568701824E-07
(PID.TID 0000.0001)  cg2d: iter=    70 ; resid.=  8.70336597766376E-08
(PID.TID 0000.0001)  cg2d: iter=    71 ; resid.=  7.39772331536363E-08
(PID.TID 0000.0001)  cg2d: iter=    72 ; resid.=  5.84182962008898E-08
(PID.TID 0000.0001)  cg2d: iter=    73 ; resid.=  5.35791693834033E-08
(PID.TID 0000.0001)  cg2d: iter=    74 ; resid.=  4.62575180684320E-08
(PID.TID 0000.0001)  cg2d: iter=    75 ; resid.=  3.86183941353627E-08
(PID.TID 0000.0001)  cg2d: iter=    76 ; resid.=  3.21869588402054E-08
(PID.TID 0000.0001)  cg2d: iter=    77 ; resid.=  2.75661687904141E-08
(PID.TID 0000.0001)  cg2d: iter=    78 ; resid.=  2.34147160165539E-08
(PID.TID 0000.0001)  cg2d: iter=    79 ; resid.=  1.92934301695242E-08
(PID.TID 0000.0001)  cg2d: iter=    80 ; resid.=  1.39897257178765E-08
(PID.TID 0000.0001)  cg2d: iter=    81 ; resid.=  1.13225264750318E-08
(PID.TID 0000.0001)  cg2d: iter=    82 ; resid.=  8.97105921261528E-09
(PID.TID 0000.0001)  cg2d: iter=    83 ; resid.=  6.83871656356782E-09
(PID.TID 0000.0001)  cg2d: iter=    84 ; resid.=  4.97338453894800E-09
(PID.TID 0000.0001)  cg2d: iter=    85 ; resid.=  3.70038513852295E-09
(PID.TID 0000.0001)  cg2d: iter=    86 ; resid.=  2.57413633260884E-09
(PID.TID 0000.0001)  cg2d: iter=    87 ; resid.=  1.92486896138492E-09
(PID.TID 0000.0001)  cg2d: iter=    88 ; resid.=  1.45619454757192E-09
(PID.TID 0000.0001)  cg2d: iter=    89 ; resid.=  1.22489670084383E-09
(PID.TID 0000.0001)  cg2d: iter=    90 ; resid.=  1.09756693533050E-09
(PID.TID 0000.0001)  cg2d: iter=    91 ; resid.=  1.02474024128796E-09
(PID.TID 0000.0001)  cg2d: iter=    92 ; resid.=  9.19784555211033E-10
(PID.TID 0000.0001)  cg2d: iter=    93 ; resid.=  6.97952093106868E-10
(PID.TID 0000.0001)  cg2d: iter=    94 ; resid.=  5.54559391300743E-10
(PID.TID 0000.0001)  cg2d: iter=    95 ; resid.=  4.14921187842472E-10
(PID.TID 0000.0001)  cg2d: iter=    96 ; resid.=  3.30278124895546E-10
(PID.TID 0000.0001)  cg2d: iter=    97 ; resid.=  2.74836503276294E-10
(PID.TID 0000.0001)  cg2d: iter=    98 ; resid.=  2.25997482594390E-10
(PID.TID 0000.0001)  cg2d: iter=    99 ; resid.=  1.74043307087475E-10
(PID.TID 0000.0001)  cg2d: iter=   100 ; resid.=  1.50254322648040E-10
(PID.TID 0000.0001)  cg2d: iter=   101 ; resid.=  1.25920628847257E-10
(PID.TID 0000.0001)  cg2d: iter=   102 ; resid.=  1.00858328413911E-10
(PID.TID 0000.0001)  cg2d: iter=   103 ; resid.=  7.51800741463789E-11
(PID.TID 0000.0001)  cg2d: iter=   104 ; resid.=  5.42041724281256E-11
(PID.TID 0000.0001)  cg2d: iter=   105 ; resid.=  4.12336709403159E-11
(PID.TID 0000.0001)  cg2d: iter=   106 ; resid.=  2.98145872061237E-11
(PID.TID 0000.0001)  cg2d: iter=   107 ; resid.=  2.27100413275068E-11
(PID.TID 0000.0001)  cg2d: iter=   108 ; resid.=  1.77382919979450E-11
(PID.TID 0000.0001)  cg2d: iter=   109 ; resid.=  1.34802785716140E-11
(PID.TID 0000.0001)  cg2d: iter=   110 ; resid.=  9.35695283173020E-12
(PID.TID 0000.0001)  cg2d: iter=   111 ; resid.=  6.45270828279393E-12
(PID.TID 0000.0001)  cg2d: iter=   112 ; resid.=  5.02223234732354E-12
(PID.TID 0000.0001)  cg2d: iter=   113 ; resid.=  4.08551674162038E-12
(PID.TID 0000.0001)  cg2d: iter=   114 ; resid.=  3.28850456005655E-12
(PID.TID 0000.0001)  cg2d: iter=   115 ; resid.=  2.70135084003594E-12
(PID.TID 0000.0001)  cg2d: iter=   116 ; resid.=  2.02971612042647E-12
(PID.TID 0000.0001)  cg2d: iter=   117 ; resid.=  1.49861647261360E-12
(PID.TID 0000.0001)  cg2d: iter=   118 ; resid.=  1.19390585090215E-12
(PID.TID 0000.0001)  cg2d: iter=   119 ; resid.=  9.97128140953435E-13
(PID.TID 0000.0001)  cg2d: iter=   120 ; resid.=  7.08461603977897E-13
(PID.TID 0000.0001)  cg2d: iter=   121 ; resid.=  5.10230252081126E-13
(PID.TID 0000.0001)  cg2d: iter=   122 ; resid.=  3.84557032432167E-13
(PID.TID 0000.0001)  cg2d: iter=   123 ; resid.=  3.00627623615716E-13
(PID.TID 0000.0001)  cg2d: iter=   124 ; resid.=  2.20181269870843E-13
(PID.TID 0000.0001)  cg2d: iter=   125 ; resid.=  1.67411196052519E-13
(PID.TID 0000.0001)  cg2d: iter=   126 ; resid.=  1.34631814847327E-13
(PID.TID 0000.0001)  cg2d: iter=   127 ; resid.=  9.53244841463912E-14
DEBUG_STATS_RL:    cg2d_x (SOLVE_FOR_PRESSURE)  min= -1.82966572530187E+01
DEBUG_STATS_RL:    cg2d_x (SOLVE_FOR_PRESSURE)  max=  9.06706113332452E+00
DEBUG_STATS_RL:    cg2d_x (SOLVE_FOR_PRESSURE) mean= -1.90222525759548E+00
DEBUG_STATS_RL:    cg2d_x (SOLVE_FOR_PRESSURE) S.D.=  7.32632091376294E+00
(PID.TID 0000.0001)      cg2d_init_res =   1.66777992785778E-01
(PID.TID 0000.0001)      cg2d_iters(min,last) =      -1     127
(PID.TID 0000.0001)      cg2d_last_res =   9.53244841463912E-14
(PID.TID 0000.0001) // =======================================================
(PID.TID 0000.0001) // Begin MONITOR dynamic field statistics
(PID.TID 0000.0001) // =======================================================
(PID.TID 0000.0001) %MON time_tsnumber                =                    95
(PID.TID 0000.0001) %MON time_secondsf                =   8.2080000000000E+06
(PID.TID 0000.0001) %MON dynstat_eta_max              =   9.2426718994127E-01
(PID.TID 0000.0001) %MON dynstat_eta_min              =  -1.8651026761487E+00
(PID.TID 0000.0001) %MON dynstat_eta_mean             =  -5.8446795879127E-03
(PID.TID 0000.0001) %MON dynstat_eta_sd               =   6.4530349166094E-01
(PID.TID 0000.0001) %MON dynstat_eta_del2             =   2.5152840507737E-03
(PID.TID 0000.0001) %MON dynstat_uvel_max             =   1.3325915417403E-01
(PID.TID 0000.0001) %MON dynstat_uvel_min             =  -1.2885325785134E-01
(PID.TID 0000.0001) %MON dynstat_uvel_mean            =   2.7182906161047E-03
(PID.TID 0000.0001) %MON dynstat_uvel_sd              =   1.3690015137837E-02
(PID.TID 0000.0001) %MON dynstat_uvel_del2            =   8.3332858080465E-05
(PID.TID 0000.0001) %MON dynstat_vvel_max             =   1.2140273873736E-01
(PID.TID 0000.0001) %MON dynstat_vvel_min             =  -8.5233437962359E-02
(PID.TID 0000.0001) %MON dynstat_vvel_mean            =   5.2187479128813E-06
(PID.TID 0000.0001) %MON dynstat_vvel_sd              =   7.5403686027037E-03
(PID.TID 0000.0001) %MON dynstat_vvel_del2            =   7.2737428093571E-05
(PID.TID 0000.0001) %MON dynstat_wvel_max             =   1.3325521388277E-04
(PID.TID 0000.0001) %MON dynstat_wvel_min             =  -5.6182630122542E-05
(PID.TID 0000.0001) %MON dynstat_wvel_mean            =   6.5869108290043E-23
(PID.TID 0000.0001) %MON dynstat_wvel_sd              =   8.8272482118376E-06
(PID.TID 0000.0001) %MON dynstat_wvel_del2            =   8.6772572015924E-08
(PID.TID 0000.0001) %MON dynstat_theta_max            =   3.1280022716899E+01
(PID.TID 0000.0001) %MON dynstat_theta_min            =  -1.9276127693038E+00
(PID.TID 0000.0001) %MON dynstat_theta_mean           =   3.6243645315794E+00
(PID.TID 0000.0001) %MON dynstat_theta_sd             =   4.4289422080072E+00
(PID.TID 0000.0001) %MON dynstat_theta_del2           =   4.8046467448725E-03
(PID.TID 0000.0001) %MON dynstat_salt_max             =   3.7473573844774E+01
(PID.TID 0000.0001) %MON dynstat_salt_min             =   2.9957738246207E+01
(PID.TID 0000.0001) %MON dynstat_salt_mean            =   3.4718006893300E+01
(PID.TID 0000.0001) %MON dynstat_salt_sd              =   2.9670046748416E-01
(PID.TID 0000.0001) %MON dynstat_salt_del2            =   9.9978618390438E-04
(PID.TID 0000.0001) %MON dynstat_sst_max              =   3.1280022716899E+01
(PID.TID 0000.0001) %MON dynstat_sst_min              =  -1.9276127693038E+00
(PID.TID 0000.0001) %MON dynstat_sst_mean             =   1.9030860833010E+01
(PID.TID 0000.0001) %MON dynstat_sst_sd               =   9.2881911447969E+00
(PID.TID 0000.0001) %MON dynstat_sst_del2             =   2.9436315597236E-02
(PID.TID 0000.0001) %MON dynstat_sss_max              =   3.7473573844774E+01
(PID.TID 0000.0001) %MON dynstat_sss_min              =   2.9957738246207E+01
(PID.TID 0000.0001) %MON dynstat_sss_mean             =   3.4835701430995E+01
(PID.TID 0000.0001) %MON dynstat_sss_sd               =   9.9287898511574E-01
(PID.TID 0000.0001) %MON dynstat_sss_del2             =   8.3579647210874E-03
(PID.TID 0000.0001) %MON forcing_qnet_max             =   1.8510822957357E+02
(PID.TID 0000.0001) %MON forcing_qnet_min             =  -1.5572366078695E+02
(PID.TID 0000.0001) %MON forcing_qnet_mean            =   2.7862616027840E-01
(PID.TID 0000.0001) %MON forcing_qnet_sd              =   4.0375401003210E+01
(PID.TID 0000.0001) %MON forcing_qnet_del2            =   7.8491634723733E-01
(PID.TID 0000.0001) %MON forcing_qsw_max              =   0.0000000000000E+00
(PID.TID 0000.0001) %MON forcing_qsw_min              =   0.0000000000000E+00
(PID.TID 0000.0001) %MON forcing_qsw_mean             =   0.0000000000000E+00
(PID.TID 0000.0001) %MON forcing_qsw_sd               =   0.0000000000000E+00
(PID.TID 0000.0001) %MON forcing_qsw_del2             =   0.0000000000000E+00
(PID.TID 0000.0001) %MON forcing_empmr_max            =   6.7281572550352E-05
(PID.TID 0000.0001) %MON forcing_empmr_min            =  -8.3546493101494E-05
(PID.TID 0000.0001) %MON forcing_empmr_mean           =   1.2424912195495E-07
(PID.TID 0000.0001) %MON forcing_empmr_sd             =   2.5509651539751E-05
(PID.TID 0000.0001) %MON forcing_empmr_del2           =   3.6610701590472E-07
(PID.TID 0000.0001) %MON forcing_fu_max               =   3.4592144489288E-01
(PID.TID 0000.0001) %MON forcing_fu_min               =  -4.0628478825092E-01
(PID.TID 0000.0001) %MON forcing_fu_mean              =   1.8040079458664E-02
(PID.TID 0000.0001) %MON forcing_fu_sd                =   1.0078745737191E-01
(PID.TID 0000.0001) %MON forcing_fu_del2              =   7.8389038691565E-04
(PID.TID 0000.0001) %MON forcing_fv_max               =   1.8147632280986E-01
(PID.TID 0000.0001) %MON forcing_fv_min               =  -1.4418310572704E-01
(PID.TID 0000.0001) %MON forcing_fv_mean              =  -6.8365186649570E-03
(PID.TID 0000.0001) %MON forcing_fv_sd                =   3.8691832000774E-02
(PID.TID 0000.0001) %MON forcing_fv_del2              =   4.1645921546217E-04
(PID.TID 0000.0001) %MON trAdv_CFL_u_max              =   4.5357720595984E-02
(PID.TID 0000.0001) %MON trAdv_CFL_v_max              =   2.3598142592418E-02
(PID.TID 0000.0001) %MON trAdv_CFL_w_max              =   2.8288104088216E-02
(PID.TID 0000.0001) %MON advcfl_uvel_max              =   4.5916504001150E-02
(PID.TID 0000.0001) %MON advcfl_vvel_max              =   2.3586605070828E-02
(PID.TID 0000.0001) %MON advcfl_wvel_max              =   3.1170434410915E-02
(PID.TID 0000.0001) %MON advcfl_W_hf_max              =   3.3462378117600E-02
(PID.TID 0000.0001) %MON pe_b_mean                    =   5.3289893909576E-04
(PID.TID 0000.0001) %MON ke_max                       =   1.0927781662345E-02
(PID.TID 0000.0001) %MON ke_mean                      =   1.1402882354889E-04
(PID.TID 0000.0001) %MON ke_vol                       =   1.3226782436723E+18
(PID.TID 0000.0001) %MON vort_r_min                   =  -3.5340895649512E-07
(PID.TID 0000.0001) %MON vort_r_max                   =   3.5942921578788E-07
(PID.TID 0000.0001) %MON vort_a_mean                  =  -2.5274807035740E-05
(PID.TID 0000.0001) %MON vort_a_sd                    =   7.3604720217571E-05
(PID.TID 0000.0001) %MON vort_p_mean                  =  -3.1845655343725E-05
(PID.TID 0000.0001) %MON vort_p_sd                    =   1.3162514956698E-04
(PID.TID 0000.0001) %MON surfExpan_theta_mean         =   9.9273677175056E-08
(PID.TID 0000.0001) %MON surfExpan_salt_mean          =  -1.1501287079660E-10
(PID.TID 0000.0001) // =======================================================
(PID.TID 0000.0001) // End MONITOR dynamic field statistics
(PID.TID 0000.0001) // =======================================================
 EXTERNAL_FIELDS_LOAD,        95 : iP,iLd,i0,i1=    3    4    3    4 ; Wght=  0.3333333333  0.6666666667
 EXTERNAL_FIELDS_LOAD: (fu0,1),fu,fv= -2.7199E-02 -3.7252E-02 -3.3901E-02 -2.3670E-02
 EXTERNAL_FIELDS_LOAD: SST,SSS,Q,E-P= -3.7744E-02  3.4572E+01  1.4120E+02  8.2063E-06
DEBUG_STATS_RL:          Uvel (THERMODYNAMICS)  min= -1.28853257851338E-01
DEBUG_STATS_RL:          Uvel (THERMODYNAMICS)  max=  1.33259154174026E-01
DEBUG_STATS_RL:          Uvel (THERMODYNAMICS) mean=  6.21298305865652E-03
DEBUG_STATS_RL:          Uvel (THERMODYNAMICS) S.D.=  2.19883673848648E-02
DEBUG_STATS_RL:          Vvel (THERMODYNAMICS)  min= -8.52334379623590E-02
DEBUG_STATS_RL:          Vvel (THERMODYNAMICS)  max=  1.21402738737363E-01
DEBUG_STATS_RL:          Vvel (THERMODYNAMICS) mean=  8.27092180169922E-04
DEBUG_STATS_RL:          Vvel (THERMODYNAMICS) S.D.=  1.24043720246901E-02
DEBUG_STATS_RL:          Wvel (THERMODYNAMICS)  min= -5.61826301225420E-05
DEBUG_STATS_RL:          Wvel (THERMODYNAMICS)  max=  1.33255213882768E-04
DEBUG_STATS_RL:          Wvel (THERMODYNAMICS) mean= -4.13888011047160E-08
DEBUG_STATS_RL:          Wvel (THERMODYNAMICS) S.D.=  7.79521753046068E-06
DEBUG_STATS_RL:         Theta (THERMODYNAMICS)  min= -1.92659804475981E+00
DEBUG_STATS_RL:         Theta (THERMODYNAMICS)  max=  3.12912547184692E+01
DEBUG_STATS_RL:         Theta (THERMODYNAMICS) mean=  3.21951724049770E+00
DEBUG_STATS_RL:         Theta (THERMODYNAMICS) S.D.=  5.88878925150537E+00
DEBUG_STATS_RL:          Salt (THERMODYNAMICS)  min= -3.29597460435593E-17
DEBUG_STATS_RL:          Salt (THERMODYNAMICS)  max=  3.74744656606120E+01
DEBUG_STATS_RL:          Salt (THERMODYNAMICS) mean=  1.88447032506020E+01
DEBUG_STATS_RL:          Salt (THERMODYNAMICS) S.D.=  1.73002704632125E+01
DEBUG_STATS_RL:         GtNm1 (THERMODYNAMICS)  min= -2.78345390029022E-06
DEBUG_STATS_RL:         GtNm1 (THERMODYNAMICS)  max=  1.86349339545591E-06
DEBUG_STATS_RL:         GtNm1 (THERMODYNAMICS) mean= -2.71951847514256E-09
DEBUG_STATS_RL:         GtNm1 (THERMODYNAMICS) S.D.=  1.24376103109101E-07
DEBUG_STATS_RL:         GsNm1 (THERMODYNAMICS)  min= -3.25776262826348E-07
DEBUG_STATS_RL:         GsNm1 (THERMODYNAMICS)  max=  2.20254638576652E-07
DEBUG_STATS_RL:         GsNm1 (THERMODYNAMICS) mean= -2.37558382385422E-10
DEBUG_STATS_RL:         GsNm1 (THERMODYNAMICS) S.D.=  1.19518940604135E-08
DEBUG_STATS_RL:                EtaN (DYNAMICS)  min= -1.86510267614866E+00
DEBUG_STATS_RL:                EtaN (DYNAMICS)  max=  9.24267189941268E-01
DEBUG_STATS_RL:                EtaN (DYNAMICS) mean= -1.93906754087206E-01
DEBUG_STATS_RL:                EtaN (DYNAMICS) S.D.=  7.46821703747493E-01
DEBUG_STATS_RL:                Uvel (DYNAMICS)  min= -1.28853257851338E-01
DEBUG_STATS_RL:                Uvel (DYNAMICS)  max=  1.33259154174026E-01
DEBUG_STATS_RL:                Uvel (DYNAMICS) mean=  6.21298305865652E-03
DEBUG_STATS_RL:                Uvel (DYNAMICS) S.D.=  2.19883673848648E-02
DEBUG_STATS_RL:                Vvel (DYNAMICS)  min= -8.52334379623590E-02
DEBUG_STATS_RL:                Vvel (DYNAMICS)  max=  1.21402738737363E-01
DEBUG_STATS_RL:                Vvel (DYNAMICS) mean=  8.27092180169922E-04
DEBUG_STATS_RL:                Vvel (DYNAMICS) S.D.=  1.24043720246901E-02
DEBUG_STATS_RL:                Wvel (DYNAMICS)  min= -5.61826301225420E-05
DEBUG_STATS_RL:                Wvel (DYNAMICS)  max=  1.33255213882768E-04
DEBUG_STATS_RL:                Wvel (DYNAMICS) mean= -4.13888011047160E-08
DEBUG_STATS_RL:                Wvel (DYNAMICS) S.D.=  7.79521753046068E-06
DEBUG_STATS_RL:               Theta (DYNAMICS)  min= -1.92659804475981E+00
DEBUG_STATS_RL:               Theta (DYNAMICS)  max=  3.12912547184692E+01
DEBUG_STATS_RL:               Theta (DYNAMICS) mean=  3.21951724049770E+00
DEBUG_STATS_RL:               Theta (DYNAMICS) S.D.=  5.88878925150537E+00
DEBUG_STATS_RL:                Salt (DYNAMICS)  min= -3.29597460435593E-17
DEBUG_STATS_RL:                Salt (DYNAMICS)  max=  3.74744656606120E+01
DEBUG_STATS_RL:                Salt (DYNAMICS) mean=  1.88447032506020E+01
DEBUG_STATS_RL:                Salt (DYNAMICS) S.D.=  1.73002704632125E+01
DEBUG_STATS_RL:                  Gu (DYNAMICS)  min= -1.27809452720936E-01
DEBUG_STATS_RL:                  Gu (DYNAMICS)  max=  1.34087223492895E-01
DEBUG_STATS_RL:                  Gu (DYNAMICS) mean=  6.18738924726992E-03
DEBUG_STATS_RL:                  Gu (DYNAMICS) S.D.=  2.24552489818849E-02
DEBUG_STATS_RL:                  Gv (DYNAMICS)  min= -8.41897240685746E-02
DEBUG_STATS_RL:                  Gv (DYNAMICS)  max=  1.21407471682320E-01
DEBUG_STATS_RL:                  Gv (DYNAMICS) mean=  3.50411797829220E-03
DEBUG_STATS_RL:                  Gv (DYNAMICS) S.D.=  1.39967346786764E-02
DEBUG_STATS_RL:               GuNm1 (DYNAMICS)  min= -9.34740599525853E-06
DEBUG_STATS_RL:               GuNm1 (DYNAMICS)  max=  1.02058370358459E-05
DEBUG_STATS_RL:               GuNm1 (DYNAMICS) mean=  1.45532283250737E-08
DEBUG_STATS_RL:               GuNm1 (DYNAMICS) S.D.=  1.22839827264145E-06
DEBUG_STATS_RL:               GvNm1 (DYNAMICS)  min= -9.34410942763037E-06
DEBUG_STATS_RL:               GvNm1 (DYNAMICS)  max=  1.50355357448888E-05
DEBUG_STATS_RL:               GvNm1 (DYNAMICS) mean=  7.39341484442607E-07
DEBUG_STATS_RL:               GvNm1 (DYNAMICS) S.D.=  2.59905505273686E-06
DEBUG_STATS_RL:               GtNm1 (DYNAMICS)  min= -2.78345390029022E-06
DEBUG_STATS_RL:               GtNm1 (DYNAMICS)  max=  1.86349339545591E-06
DEBUG_STATS_RL:               GtNm1 (DYNAMICS) mean= -2.71951847514256E-09
DEBUG_STATS_RL:               GtNm1 (DYNAMICS) S.D.=  1.24376103109101E-07
DEBUG_STATS_RL:               GsNm1 (DYNAMICS)  min= -3.25776262826348E-07
DEBUG_STATS_RL:               GsNm1 (DYNAMICS)  max=  2.20254638576652E-07
DEBUG_STATS_RL:               GsNm1 (DYNAMICS) mean= -2.37558382385422E-10
DEBUG_STATS_RL:               GsNm1 (DYNAMICS) S.D.=  1.19518940604135E-08
DEBUG_STATS_RL:    cg2d_b (SOLVE_FOR_PRESSURE)  min= -2.80198183905841E+04
DEBUG_STATS_RL:    cg2d_b (SOLVE_FOR_PRESSURE)  max=  2.96111304776526E+04
DEBUG_STATS_RL:    cg2d_b (SOLVE_FOR_PRESSURE) mean=  5.60984531515364E+00
DEBUG_STATS_RL:    cg2d_b (SOLVE_FOR_PRESSURE) S.D.=  3.99849101611194E+03
 cg2d: Sum(rhs),rhsMax =   4.38578051397984E-01  1.94493833137431E+00
(PID.TID 0000.0001)  cg2d: iter=     1 ; resid.=  4.09867265362718E-02
(PID.TID 0000.0001)  cg2d: iter=     2 ; resid.=  2.07769446657815E-02
(PID.TID 0000.0001)  cg2d: iter=     3 ; resid.=  1.46351834528143E-02
(PID.TID 0000.0001)  cg2d: iter=     4 ; resid.=  1.53836551232252E-02
(PID.TID 0000.0001)  cg2d: iter=     5 ; resid.=  1.47077035699666E-02
(PID.TID 0000.0001)  cg2d: iter=     6 ; resid.=  1.36411111602663E-02
(PID.TID 0000.0001)  cg2d: iter=     7 ; resid.=  1.14066293760985E-02
(PID.TID 0000.0001)  cg2d: iter=     8 ; resid.=  9.66824392370026E-03
(PID.TID 0000.0001)  cg2d: iter=     9 ; resid.=  8.33072809705873E-03
(PID.TID 0000.0001)  cg2d: iter=    10 ; resid.=  6.60989701964439E-03
(PID.TID 0000.0001)  cg2d: iter=    11 ; resid.=  5.25942406806488E-03
(PID.TID 0000.0001)  cg2d: iter=    12 ; resid.=  4.29654225047868E-03
(PID.TID 0000.0001)  cg2d: iter=    13 ; resid.=  3.67152175852185E-03
(PID.TID 0000.0001)  cg2d: iter=    14 ; resid.=  3.15029528813398E-03
(PID.TID 0000.0001)  cg2d: iter=    15 ; resid.=  2.62016380074061E-03
(PID.TID 0000.0001)  cg2d: iter=    16 ; resid.=  2.03851488084146E-03
(PID.TID 0000.0001)  cg2d: iter=    17 ; resid.=  1.73575212302064E-03
(PID.TID 0000.0001)  cg2d: iter=    18 ; resid.=  1.46931980220735E-03
(PID.TID 0000.0001)  cg2d: iter=    19 ; resid.=  1.22866649785870E-03
(PID.TID 0000.0001)  cg2d: iter=    20 ; resid.=  1.00018917142269E-03
(PID.TID 0000.0001)  cg2d: iter=    21 ; resid.=  7.99343280672813E-04
(PID.TID 0000.0001)  cg2d: iter=    22 ; resid.=  6.63518637588972E-04
(PID.TID 0000.0001)  cg2d: iter=    23 ; resid.=  4.90225243876742E-04
(PID.TID 0000.0001)  cg2d: iter=    24 ; resid.=  4.18569145292856E-04
(PID.TID 0000.0001)  cg2d: iter=    25 ; resid.=  4.00648693345825E-04
(PID.TID 0000.0001)  cg2d: iter=    26 ; resid.=  3.41045333068904E-04
(PID.TID 0000.0001)  cg2d: iter=    27 ; resid.=  2.82040511961898E-04
(PID.TID 0000.0001)  cg2d: iter=    28 ; resid.=  2.41978304818775E-04
(PID.TID 0000.0001)  cg2d: iter=    29 ; resid.=  1.99118882978639E-04
(PID.TID 0000.0001)  cg2d: iter=    30 ; resid.=  1.60123328719376E-04
(PID.TID 0000.0001)  cg2d: iter=    31 ; resid.=  1.28896117991741E-04
(PID.TID 0000.0001)  cg2d: iter=    32 ; resid.=  1.05140454162555E-04
(PID.TID 0000.0001)  cg2d: iter=    33 ; resid.=  7.65173610752277E-05
(PID.TID 0000.0001)  cg2d: iter=    34 ; resid.=  6.07110267696894E-05
(PID.TID 0000.0001)  cg2d: iter=    35 ; resid.=  4.75771997187598E-05
(PID.TID 0000.0001)  cg2d: iter=    36 ; resid.=  3.32934270720227E-05
(PID.TID 0000.0001)  cg2d: iter=    37 ; resid.=  2.57887693254319E-05
(PID.TID 0000.0001)  cg2d: iter=    38 ; resid.=  2.38523647444779E-05
(PID.TID 0000.0001)  cg2d: iter=    39 ; resid.=  2.20064399767720E-05
(PID.TID 0000.0001)  cg2d: iter=    40 ; resid.=  1.93043858335190E-05
(PID.TID 0000.0001)  cg2d: iter=    41 ; resid.=  1.57333762421444E-05
(PID.TID 0000.0001)  cg2d: iter=    42 ; resid.=  1.30681584013982E-05
(PID.TID 0000.0001)  cg2d: iter=    43 ; resid.=  1.16611258893994E-05
(PID.TID 0000.0001)  cg2d: iter=    44 ; resid.=  1.03252425821900E-05
(PID.TID 0000.0001)  cg2d: iter=    45 ; resid.=  8.68975359177904E-06
(PID.TID 0000.0001)  cg2d: iter=    46 ; resid.=  7.32062303785009E-06
(PID.TID 0000.0001)  cg2d: iter=    47 ; resid.=  6.14057894979661E-06
(PID.TID 0000.0001)  cg2d: iter=    48 ; resid.=  5.16263965069888E-06
(PID.TID 0000.0001)  cg2d: iter=    49 ; resid.=  4.53289586071730E-06
(PID.TID 0000.0001)  cg2d: iter=    50 ; resid.=  3.76824714356771E-06
(PID.TID 0000.0001)  cg2d: iter=    51 ; resid.=  3.05791050252883E-06
(PID.TID 0000.0001)  cg2d: iter=    52 ; resid.=  2.59271892898146E-06
(PID.TID 0000.0001)  cg2d: iter=    53 ; resid.=  2.18533899844119E-06
(PID.TID 0000.0001)  cg2d: iter=    54 ; resid.=  1.95976729987789E-06
(PID.TID 0000.0001)  cg2d: iter=    55 ; resid.=  1.70495852398457E-06
(PID.TID 0000.0001)  cg2d: iter=    56 ; resid.=  1.35798124466080E-06
(PID.TID 0000.0001)  cg2d: iter=    57 ; resid.=  1.10828111478540E-06
(PID.TID 0000.0001)  cg2d: iter=    58 ; resid.=  8.69420278967807E-07
(PID.TID 0000.0001)  cg2d: iter=    59 ; resid.=  7.13801886521170E-07
(PID.TID 0000.0001)  cg2d: iter=    60 ; resid.=  5.80653150459914E-07
(PID.TID 0000.0001)  cg2d: iter=    61 ; resid.=  4.67675958270386E-07
(PID.TID 0000.0001)  cg2d: iter=    62 ; resid.=  3.65299768487395E-07
(PID.TID 0000.0001)  cg2d: iter=    63 ; resid.=  2.99520445983462E-07
(PID.TID 0000.0001)  cg2d: iter=    64 ; resid.=  2.55835694972411E-07
(PID.TID 0000.0001)  cg2d: iter=    65 ; resid.=  2.14251106977432E-07
(PID.TID 0000.0001)  cg2d: iter=    66 ; resid.=  1.68505200946373E-07
(PID.TID 0000.0001)  cg2d: iter=    67 ; resid.=  1.30161999503546E-07
(PID.TID 0000.0001)  cg2d: iter=    68 ; resid.=  1.12312372916195E-07
(PID.TID 0000.0001)  cg2d: iter=    69 ; resid.=  9.35365120181547E-08
(PID.TID 0000.0001)  cg2d: iter=    70 ; resid.=  7.94751596592035E-08
(PID.TID 0000.0001)  cg2d: iter=    71 ; resid.=  6.71615230621744E-08
(PID.TID 0000.0001)  cg2d: iter=    72 ; resid.=  5.22182664719304E-08
(PID.TID 0000.0001)  cg2d: iter=    73 ; resid.=  4.67978046436451E-08
(PID.TID 0000.0001)  cg2d: iter=    74 ; resid.=  3.97902982042082E-08
(PID.TID 0000.0001)  cg2d: iter=    75 ; resid.=  3.27405227677538E-08
(PID.TID 0000.0001)  cg2d: iter=    76 ; resid.=  2.72501619635663E-08
(PID.TID 0000.0001)  cg2d: iter=    77 ; resid.=  2.37122209334959E-08
(PID.TID 0000.0001)  cg2d: iter=    78 ; resid.=  2.04372135633678E-08
(PID.TID 0000.0001)  cg2d: iter=    79 ; resid.=  1.71778075621200E-08
(PID.TID 0000.0001)  cg2d: iter=    80 ; resid.=  1.27851032283048E-08
(PID.TID 0000.0001)  cg2d: iter=    81 ; resid.=  1.05174288826321E-08
(PID.TID 0000.0001)  cg2d: iter=    82 ; resid.=  8.51211420101667E-09
(PID.TID 0000.0001)  cg2d: iter=    83 ; resid.=  6.61475061910250E-09
(PID.TID 0000.0001)  cg2d: iter=    84 ; resid.=  4.77639672460827E-09
(PID.TID 0000.0001)  cg2d: iter=    85 ; resid.=  3.57003519782293E-09
(PID.TID 0000.0001)  cg2d: iter=    86 ; resid.=  2.50033546210435E-09
(PID.TID 0000.0001)  cg2d: iter=    87 ; resid.=  1.83786554881996E-09
(PID.TID 0000.0001)  cg2d: iter=    88 ; resid.=  1.35622321395668E-09
(PID.TID 0000.0001)  cg2d: iter=    89 ; resid.=  1.10885457136106E-09
(PID.TID 0000.0001)  cg2d: iter=    90 ; resid.=  9.69618898591593E-10
(PID.TID 0000.0001)  cg2d: iter=    91 ; resid.=  9.05837967909058E-10
(PID.TID 0000.0001)  cg2d: iter=    92 ; resid.=  8.34385134811226E-10
(PID.TID 0000.0001)  cg2d: iter=    93 ; resid.=  6.45301735372863E-10
(PID.TID 0000.0001)  cg2d: iter=    94 ; resid.=  5.18631621655934E-10
(PID.TID 0000.0001)  cg2d: iter=    95 ; resid.=  3.93682687060963E-10
(PID.TID 0000.0001)  cg2d: iter=    96 ; resid.=  3.12197157190264E-10
(PID.TID 0000.0001)  cg2d: iter=    97 ; resid.=  2.55203973050777E-10
(PID.TID 0000.0001)  cg2d: iter=    98 ; resid.=  2.08681727279858E-10
(PID.TID 0000.0001)  cg2d: iter=    99 ; resid.=  1.59388411004033E-10
(PID.TID 0000.0001)  cg2d: iter=   100 ; resid.=  1.33913313327308E-10
(PID.TID 0000.0001)  cg2d: iter=   101 ; resid.=  1.12258893924737E-10
(PID.TID 0000.0001)  cg2d: iter=   102 ; resid.=  9.27756875554803E-11
(PID.TID 0000.0001)  cg2d: iter=   103 ; resid.=  7.10599213413959E-11
(PID.TID 0000.0001)  cg2d: iter=   104 ; resid.=  5.29585224369399E-11
(PID.TID 0000.0001)  cg2d: iter=   105 ; resid.=  4.17144870632980E-11
(PID.TID 0000.0001)  cg2d: iter=   106 ; resid.=  3.04653339028353E-11
(PID.TID 0000.0001)  cg2d: iter=   107 ; resid.=  2.30615934689107E-11
(PID.TID 0000.0001)  cg2d: iter=   108 ; resid.=  1.77380494047346E-11
(PID.TID 0000.0001)  cg2d: iter=   109 ; resid.=  1.31960204067405E-11
(PID.TID 0000.0001)  cg2d: iter=   110 ; resid.=  9.21909273040585E-12
(PID.TID 0000.0001)  cg2d: iter=   111 ; resid.=  6.41019225947911E-12
(PID.TID 0000.0001)  cg2d: iter=   112 ; resid.=  4.95111967911912E-12
(PID.TID 0000.0001)  cg2d: iter=   113 ; resid.=  4.05122232941254E-12
(PID.TID 0000.0001)  cg2d: iter=   114 ; resid.=  3.29008463316697E-12
(PID.TID 0000.0001)  cg2d: iter=   115 ; resid.=  2.74940315453963E-12
(PID.TID 0000.0001)  cg2d: iter=   116 ; resid.=  2.14779307733261E-12
(PID.TID 0000.0001)  cg2d: iter=   117 ; resid.=  1.58962753058238E-12
(PID.TID 0000.0001)  cg2d: iter=   118 ; resid.=  1.21507775620930E-12
(PID.TID 0000.0001)  cg2d: iter=   119 ; resid.=  1.00597124265019E-12
(PID.TID 0000.0001)  cg2d: iter=   120 ; resid.=  7.24889559001187E-13
(PID.TID 0000.0001)  cg2d: iter=   121 ; resid.=  5.18516491280663E-13
(PID.TID 0000.0001)  cg2d: iter=   122 ; resid.=  3.82380920373641E-13
(PID.TID 0000.0001)  cg2d: iter=   123 ; resid.=  2.99981887777412E-13
(PID.TID 0000.0001)  cg2d: iter=   124 ; resid.=  2.20906678927613E-13
(PID.TID 0000.0001)  cg2d: iter=   125 ; resid.=  1.68570404658984E-13
(PID.TID 0000.0001)  cg2d: iter=   126 ; resid.=  1.35043250127183E-13
(PID.TID 0000.0001)  cg2d: iter=   127 ; resid.=  9.54215768666042E-14
DEBUG_STATS_RL:    cg2d_x (SOLVE_FOR_PRESSURE)  min= -1.83352672666730E+01
DEBUG_STATS_RL:    cg2d_x (SOLVE_FOR_PRESSURE)  max=  9.06653795521071E+00
DEBUG_STATS_RL:    cg2d_x (SOLVE_FOR_PRESSURE) mean= -1.90435344141231E+00
DEBUG_STATS_RL:    cg2d_x (SOLVE_FOR_PRESSURE) S.D.=  7.33779070854826E+00
(PID.TID 0000.0001)      cg2d_init_res =   1.63220078035029E-01
(PID.TID 0000.0001)      cg2d_iters(min,last) =      -1     127
(PID.TID 0000.0001)      cg2d_last_res =   9.54215768666042E-14
(PID.TID 0000.0001) // =======================================================
(PID.TID 0000.0001) // Begin MONITOR dynamic field statistics
(PID.TID 0000.0001) // =======================================================
(PID.TID 0000.0001) %MON time_tsnumber                =                    96
(PID.TID 0000.0001) %MON time_secondsf                =   8.2944000000000E+06
(PID.TID 0000.0001) %MON dynstat_eta_max              =   9.2421385883897E-01
(PID.TID 0000.0001) %MON dynstat_eta_min              =  -1.8690384573572E+00
(PID.TID 0000.0001) %MON dynstat_eta_mean             =  -5.8531779885079E-03
(PID.TID 0000.0001) %MON dynstat_eta_sd               =   6.4654436367515E-01
(PID.TID 0000.0001) %MON dynstat_eta_del2             =   2.5190564417528E-03
(PID.TID 0000.0001) %MON dynstat_uvel_max             =   1.2880988878746E-01
(PID.TID 0000.0001) %MON dynstat_uvel_min             =  -1.2799973521945E-01
(PID.TID 0000.0001) %MON dynstat_uvel_mean            =   2.7166222693022E-03
(PID.TID 0000.0001) %MON dynstat_uvel_sd              =   1.3710125415953E-02
(PID.TID 0000.0001) %MON dynstat_uvel_del2            =   8.3461277554460E-05
(PID.TID 0000.0001) %MON dynstat_vvel_max             =   1.2184849057379E-01
(PID.TID 0000.0001) %MON dynstat_vvel_min             =  -8.6435207938831E-02
(PID.TID 0000.0001) %MON dynstat_vvel_mean            =   5.5308515926880E-06
(PID.TID 0000.0001) %MON dynstat_vvel_sd              =   7.5175558479908E-03
(PID.TID 0000.0001) %MON dynstat_vvel_del2            =   7.2650297488154E-05
(PID.TID 0000.0001) %MON dynstat_wvel_max             =   1.3700837365417E-04
(PID.TID 0000.0001) %MON dynstat_wvel_min             =  -5.6928261023520E-05
(PID.TID 0000.0001) %MON dynstat_wvel_mean            =   1.1016604060837E-22
(PID.TID 0000.0001) %MON dynstat_wvel_sd              =   8.8040548320924E-06
(PID.TID 0000.0001) %MON dynstat_wvel_del2            =   8.6307149921013E-08
(PID.TID 0000.0001) %MON dynstat_theta_max            =   3.1291254718469E+01
(PID.TID 0000.0001) %MON dynstat_theta_min            =  -1.9265980447598E+00
(PID.TID 0000.0001) %MON dynstat_theta_mean           =   3.6243578617197E+00
(PID.TID 0000.0001) %MON dynstat_theta_sd             =   4.4289562950607E+00
(PID.TID 0000.0001) %MON dynstat_theta_del2           =   4.8013358987559E-03
(PID.TID 0000.0001) %MON dynstat_salt_max             =   3.7474465660612E+01
(PID.TID 0000.0001) %MON dynstat_salt_min             =   2.9960629448568E+01
(PID.TID 0000.0001) %MON dynstat_salt_mean            =   3.4718007209555E+01
(PID.TID 0000.0001) %MON dynstat_salt_sd              =   2.9670902276431E-01
(PID.TID 0000.0001) %MON dynstat_salt_del2            =   9.9976857454625E-04
(PID.TID 0000.0001) %MON dynstat_sst_max              =   3.1291254718469E+01
(PID.TID 0000.0001) %MON dynstat_sst_min              =  -1.9265980447598E+00
(PID.TID 0000.0001) %MON dynstat_sst_mean             =   1.9027107001000E+01
(PID.TID 0000.0001) %MON dynstat_sst_sd               =   9.2954212985233E+00
(PID.TID 0000.0001) %MON dynstat_sst_del2             =   2.9447128455168E-02
(PID.TID 0000.0001) %MON dynstat_sss_max              =   3.7474465660612E+01
(PID.TID 0000.0001) %MON dynstat_sss_min              =   2.9960629448568E+01
(PID.TID 0000.0001) %MON dynstat_sss_mean             =   3.4835476449834E+01
(PID.TID 0000.0001) %MON dynstat_sss_sd               =   9.9330664468487E-01
(PID.TID 0000.0001) %MON dynstat_sss_del2             =   8.3632980803822E-03
(PID.TID 0000.0001) %MON forcing_qnet_max             =   1.8040299479167E+02
(PID.TID 0000.0001) %MON forcing_qnet_min             =  -1.5529566446940E+02
(PID.TID 0000.0001) %MON forcing_qnet_mean            =   6.7566258924804E-01
(PID.TID 0000.0001) %MON forcing_qnet_sd              =   4.0811835969263E+01
(PID.TID 0000.0001) %MON forcing_qnet_del2            =   7.8641898136812E-01
(PID.TID 0000.0001) %MON forcing_qsw_max              =   0.0000000000000E+00
(PID.TID 0000.0001) %MON forcing_qsw_min              =   0.0000000000000E+00
(PID.TID 0000.0001) %MON forcing_qsw_mean             =   0.0000000000000E+00
(PID.TID 0000.0001) %MON forcing_qsw_sd               =   0.0000000000000E+00
(PID.TID 0000.0001) %MON forcing_qsw_del2             =   0.0000000000000E+00
(PID.TID 0000.0001) %MON forcing_empmr_max            =   6.7185401538457E-05
(PID.TID 0000.0001) %MON forcing_empmr_min            =  -8.3561339181415E-05
(PID.TID 0000.0001) %MON forcing_empmr_mean           =   1.0180375712738E-07
(PID.TID 0000.0001) %MON forcing_empmr_sd             =   2.5504926925635E-05
(PID.TID 0000.0001) %MON forcing_empmr_del2           =   3.6682577382862E-07
(PID.TID 0000.0001) %MON forcing_fu_max               =   3.4542939066887E-01
(PID.TID 0000.0001) %MON forcing_fu_min               =  -4.0721786022186E-01
(PID.TID 0000.0001) %MON forcing_fu_mean              =   1.7912887361731E-02
(PID.TID 0000.0001) %MON forcing_fu_sd                =   1.0095571358910E-01
(PID.TID 0000.0001) %MON forcing_fu_del2              =   7.8746887246203E-04
(PID.TID 0000.0001) %MON forcing_fv_max               =   1.8138032158216E-01
(PID.TID 0000.0001) %MON forcing_fv_min               =  -1.4448850850264E-01
(PID.TID 0000.0001) %MON forcing_fv_mean              =  -6.8000419925840E-03
(PID.TID 0000.0001) %MON forcing_fv_sd                =   3.8744507410474E-02
(PID.TID 0000.0001) %MON forcing_fv_del2              =   4.1826418135410E-04
(PID.TID 0000.0001) %MON trAdv_CFL_u_max              =   4.5925829971513E-02
(PID.TID 0000.0001) %MON trAdv_CFL_v_max              =   2.3548273196616E-02
(PID.TID 0000.0001) %MON trAdv_CFL_w_max              =   2.9172329640984E-02
(PID.TID 0000.0001) %MON advcfl_uvel_max              =   4.6288847422820E-02
(PID.TID 0000.0001) %MON advcfl_vvel_max              =   2.3673207503646E-02
(PID.TID 0000.0001) %MON advcfl_wvel_max              =   3.2168213672098E-02
(PID.TID 0000.0001) %MON advcfl_W_hf_max              =   3.4533523500929E-02
(PID.TID 0000.0001) %MON pe_b_mean                    =   5.3495032086252E-04
(PID.TID 0000.0001) %MON ke_max                       =   1.0302551955220E-02
(PID.TID 0000.0001) %MON ke_mean                      =   1.1412082645061E-04
(PID.TID 0000.0001) %MON ke_vol                       =   1.3226782436723E+18
(PID.TID 0000.0001) %MON vort_r_min                   =  -3.5526274521909E-07
(PID.TID 0000.0001) %MON vort_r_max                   =   3.5900255342419E-07
(PID.TID 0000.0001) %MON vort_a_mean                  =  -2.5274807044763E-05
(PID.TID 0000.0001) %MON vort_a_sd                    =   7.3604718856890E-05
(PID.TID 0000.0001) %MON vort_p_mean                  =  -3.1845655355094E-05
(PID.TID 0000.0001) %MON vort_p_sd                    =   1.3162518805872E-04
(PID.TID 0000.0001) %MON surfExpan_theta_mean         =   8.6090767723264E-08
(PID.TID 0000.0001) %MON surfExpan_salt_mean          =   2.7086252366556E-09
(PID.TID 0000.0001) // =======================================================
(PID.TID 0000.0001) // End MONITOR dynamic field statistics
(PID.TID 0000.0001) // =======================================================
 EXTERNAL_FIELDS_LOAD,        96 : iP,iLd,i0,i1=    3    4    3    4 ; Wght=  0.3000000000  0.7000000000
 EXTERNAL_FIELDS_LOAD: (fu0,1),fu,fv= -2.7199E-02 -3.7252E-02 -3.4236E-02 -2.4825E-02
 EXTERNAL_FIELDS_LOAD: SST,SSS,Q,E-P= -3.0436E-02  3.4572E+01  1.3750E+02  8.1626E-06
DEBUG_STATS_RL:          Uvel (THERMODYNAMICS)  min= -1.27999735219449E-01
DEBUG_STATS_RL:          Uvel (THERMODYNAMICS)  max=  1.28809888787462E-01
DEBUG_STATS_RL:          Uvel (THERMODYNAMICS) mean=  6.21732275009522E-03
DEBUG_STATS_RL:          Uvel (THERMODYNAMICS) S.D.=  2.20454821026706E-02
DEBUG_STATS_RL:          Vvel (THERMODYNAMICS)  min= -8.64352079388309E-02
DEBUG_STATS_RL:          Vvel (THERMODYNAMICS)  max=  1.21848490573791E-01
DEBUG_STATS_RL:          Vvel (THERMODYNAMICS) mean=  8.27959658305579E-04
DEBUG_STATS_RL:          Vvel (THERMODYNAMICS) S.D.=  1.23756148533818E-02
DEBUG_STATS_RL:          Wvel (THERMODYNAMICS)  min= -5.69282610235204E-05
DEBUG_STATS_RL:          Wvel (THERMODYNAMICS)  max=  1.37008373654172E-04
DEBUG_STATS_RL:          Wvel (THERMODYNAMICS) mean= -3.76384518891214E-08
DEBUG_STATS_RL:          Wvel (THERMODYNAMICS) S.D.=  7.77094311998890E-06
DEBUG_STATS_RL:         Theta (THERMODYNAMICS)  min= -1.92560714035804E+00
DEBUG_STATS_RL:         Theta (THERMODYNAMICS)  max=  3.13019516685068E+01
DEBUG_STATS_RL:         Theta (THERMODYNAMICS) mean=  3.21932485783084E+00
DEBUG_STATS_RL:         Theta (THERMODYNAMICS) S.D.=  5.88872256812580E+00
DEBUG_STATS_RL:          Salt (THERMODYNAMICS)  min= -3.29597460435593E-17
DEBUG_STATS_RL:          Salt (THERMODYNAMICS)  max=  3.74753642037368E+01
DEBUG_STATS_RL:          Salt (THERMODYNAMICS) mean=  1.88446958675260E+01
DEBUG_STATS_RL:          Salt (THERMODYNAMICS) S.D.=  1.73002645426198E+01
DEBUG_STATS_RL:         GtNm1 (THERMODYNAMICS)  min= -2.70828379443084E-06
DEBUG_STATS_RL:         GtNm1 (THERMODYNAMICS)  max=  1.85078186247925E-06
DEBUG_STATS_RL:         GtNm1 (THERMODYNAMICS) mean= -2.84232218781713E-09
DEBUG_STATS_RL:         GtNm1 (THERMODYNAMICS) S.D.=  1.23587895035545E-07
DEBUG_STATS_RL:         GsNm1 (THERMODYNAMICS)  min= -2.99417614580456E-07
DEBUG_STATS_RL:         GsNm1 (THERMODYNAMICS)  max=  2.18052161530370E-07
DEBUG_STATS_RL:         GsNm1 (THERMODYNAMICS) mean= -2.32394806656153E-10
DEBUG_STATS_RL:         GsNm1 (THERMODYNAMICS) S.D.=  1.17075337159955E-08
DEBUG_STATS_RL:                EtaN (DYNAMICS)  min= -1.86903845735716E+00
DEBUG_STATS_RL:                EtaN (DYNAMICS)  max=  9.24213858838970E-01
DEBUG_STATS_RL:                EtaN (DYNAMICS) mean= -1.94123694333571E-01
DEBUG_STATS_RL:                EtaN (DYNAMICS) S.D.=  7.47990897915213E-01
DEBUG_STATS_RL:                Uvel (DYNAMICS)  min= -1.27999735219449E-01
DEBUG_STATS_RL:                Uvel (DYNAMICS)  max=  1.28809888787462E-01
DEBUG_STATS_RL:                Uvel (DYNAMICS) mean=  6.21732275009522E-03
DEBUG_STATS_RL:                Uvel (DYNAMICS) S.D.=  2.20454821026706E-02
DEBUG_STATS_RL:                Vvel (DYNAMICS)  min= -8.64352079388309E-02
DEBUG_STATS_RL:                Vvel (DYNAMICS)  max=  1.21848490573791E-01
DEBUG_STATS_RL:                Vvel (DYNAMICS) mean=  8.27959658305579E-04
DEBUG_STATS_RL:                Vvel (DYNAMICS) S.D.=  1.23756148533818E-02
DEBUG_STATS_RL:                Wvel (DYNAMICS)  min= -5.69282610235204E-05
DEBUG_STATS_RL:                Wvel (DYNAMICS)  max=  1.37008373654172E-04
DEBUG_STATS_RL:                Wvel (DYNAMICS) mean= -3.76384518891214E-08
DEBUG_STATS_RL:                Wvel (DYNAMICS) S.D.=  7.77094311998890E-06
DEBUG_STATS_RL:               Theta (DYNAMICS)  min= -1.92560714035804E+00
DEBUG_STATS_RL:               Theta (DYNAMICS)  max=  3.13019516685068E+01
DEBUG_STATS_RL:               Theta (DYNAMICS) mean=  3.21932485783084E+00
DEBUG_STATS_RL:               Theta (DYNAMICS) S.D.=  5.88872256812580E+00
DEBUG_STATS_RL:                Salt (DYNAMICS)  min= -3.29597460435593E-17
DEBUG_STATS_RL:                Salt (DYNAMICS)  max=  3.74753642037368E+01
DEBUG_STATS_RL:                Salt (DYNAMICS) mean=  1.88446958675260E+01
DEBUG_STATS_RL:                Salt (DYNAMICS) S.D.=  1.73002645426198E+01
DEBUG_STATS_RL:                  Gu (DYNAMICS)  min= -1.26956104919372E-01
DEBUG_STATS_RL:                  Gu (DYNAMICS)  max=  1.34746540190669E-01
DEBUG_STATS_RL:                  Gu (DYNAMICS) mean=  6.19256654218195E-03
DEBUG_STATS_RL:                  Gu (DYNAMICS) S.D.=  2.25129163234665E-02
DEBUG_STATS_RL:                  Gv (DYNAMICS)  min= -8.50378840611331E-02
DEBUG_STATS_RL:                  Gv (DYNAMICS)  max=  1.21197183123411E-01
DEBUG_STATS_RL:                  Gv (DYNAMICS) mean=  3.50592097205290E-03
DEBUG_STATS_RL:                  Gv (DYNAMICS) S.D.=  1.39737641986804E-02
DEBUG_STATS_RL:               GuNm1 (DYNAMICS)  min= -9.31652518136268E-06
DEBUG_STATS_RL:               GuNm1 (DYNAMICS)  max=  1.02618326050025E-05
DEBUG_STATS_RL:               GuNm1 (DYNAMICS) mean=  1.50194290119205E-08
DEBUG_STATS_RL:               GuNm1 (DYNAMICS) S.D.=  1.22926311065003E-06
DEBUG_STATS_RL:               GvNm1 (DYNAMICS)  min= -9.35250436034700E-06
DEBUG_STATS_RL:               GvNm1 (DYNAMICS)  max=  1.50135627074341E-05
DEBUG_STATS_RL:               GvNm1 (DYNAMICS) mean=  7.39555732275579E-07
DEBUG_STATS_RL:               GvNm1 (DYNAMICS) S.D.=  2.59857062579736E-06
DEBUG_STATS_RL:               GtNm1 (DYNAMICS)  min= -2.70828379443084E-06
DEBUG_STATS_RL:               GtNm1 (DYNAMICS)  max=  1.85078186247925E-06
DEBUG_STATS_RL:               GtNm1 (DYNAMICS) mean= -2.84232218781713E-09
DEBUG_STATS_RL:               GtNm1 (DYNAMICS) S.D.=  1.23587895035545E-07
DEBUG_STATS_RL:               GsNm1 (DYNAMICS)  min= -2.99417614580456E-07
DEBUG_STATS_RL:               GsNm1 (DYNAMICS)  max=  2.18052161530370E-07
DEBUG_STATS_RL:               GsNm1 (DYNAMICS) mean= -2.32394806656153E-10
DEBUG_STATS_RL:               GsNm1 (DYNAMICS) S.D.=  1.17075337159955E-08
DEBUG_STATS_RL:    cg2d_b (SOLVE_FOR_PRESSURE)  min= -2.82587453436195E+04
DEBUG_STATS_RL:    cg2d_b (SOLVE_FOR_PRESSURE)  max=  2.97622234173673E+04
DEBUG_STATS_RL:    cg2d_b (SOLVE_FOR_PRESSURE) mean=  5.61619460874359E+00
DEBUG_STATS_RL:    cg2d_b (SOLVE_FOR_PRESSURE) S.D.=  4.00452358530638E+03
 cg2d: Sum(rhs),rhsMax =   4.36845404219814E-01  1.95486252019490E+00
(PID.TID 0000.0001)  cg2d: iter=     1 ; resid.=  4.05200484408378E-02
(PID.TID 0000.0001)  cg2d: iter=     2 ; resid.=  2.00696405567092E-02
(PID.TID 0000.0001)  cg2d: iter=     3 ; resid.=  1.34324117071156E-02
(PID.TID 0000.0001)  cg2d: iter=     4 ; resid.=  1.32169921508737E-02
(PID.TID 0000.0001)  cg2d: iter=     5 ; resid.=  1.26737838872238E-02
(PID.TID 0000.0001)  cg2d: iter=     6 ; resid.=  1.18782483085173E-02
(PID.TID 0000.0001)  cg2d: iter=     7 ; resid.=  1.00043878992915E-02
(PID.TID 0000.0001)  cg2d: iter=     8 ; resid.=  8.57079628217500E-03
(PID.TID 0000.0001)  cg2d: iter=     9 ; resid.=  7.46835687676888E-03
(PID.TID 0000.0001)  cg2d: iter=    10 ; resid.=  6.12994581434606E-03
(PID.TID 0000.0001)  cg2d: iter=    11 ; resid.=  5.04310353462227E-03
(PID.TID 0000.0001)  cg2d: iter=    12 ; resid.=  4.10122732208492E-03
(PID.TID 0000.0001)  cg2d: iter=    13 ; resid.=  3.47568109241296E-03
(PID.TID 0000.0001)  cg2d: iter=    14 ; resid.=  2.94365522007485E-03
(PID.TID 0000.0001)  cg2d: iter=    15 ; resid.=  2.43700745247181E-03
(PID.TID 0000.0001)  cg2d: iter=    16 ; resid.=  1.89617660937289E-03
(PID.TID 0000.0001)  cg2d: iter=    17 ; resid.=  1.57721672206444E-03
(PID.TID 0000.0001)  cg2d: iter=    18 ; resid.=  1.32475878462948E-03
(PID.TID 0000.0001)  cg2d: iter=    19 ; resid.=  1.11684763823269E-03
(PID.TID 0000.0001)  cg2d: iter=    20 ; resid.=  9.22277024982765E-04
(PID.TID 0000.0001)  cg2d: iter=    21 ; resid.=  7.37455926825822E-04
(PID.TID 0000.0001)  cg2d: iter=    22 ; resid.=  6.10674796872963E-04
(PID.TID 0000.0001)  cg2d: iter=    23 ; resid.=  4.46043962595569E-04
(PID.TID 0000.0001)  cg2d: iter=    24 ; resid.=  3.68738268451529E-04
(PID.TID 0000.0001)  cg2d: iter=    25 ; resid.=  3.46405661157728E-04
(PID.TID 0000.0001)  cg2d: iter=    26 ; resid.=  2.97002586318713E-04
(PID.TID 0000.0001)  cg2d: iter=    27 ; resid.=  2.47067691327385E-04
(PID.TID 0000.0001)  cg2d: iter=    28 ; resid.=  2.16668469619388E-04
(PID.TID 0000.0001)  cg2d: iter=    29 ; resid.=  1.83230616389679E-04
(PID.TID 0000.0001)  cg2d: iter=    30 ; resid.=  1.49722586439901E-04
(PID.TID 0000.0001)  cg2d: iter=    31 ; resid.=  1.21806391690827E-04
(PID.TID 0000.0001)  cg2d: iter=    32 ; resid.=  9.97655096931039E-05
(PID.TID 0000.0001)  cg2d: iter=    33 ; resid.=  7.37216923488590E-05
(PID.TID 0000.0001)  cg2d: iter=    34 ; resid.=  5.82867754267341E-05
(PID.TID 0000.0001)  cg2d: iter=    35 ; resid.=  4.52596738294987E-05
(PID.TID 0000.0001)  cg2d: iter=    36 ; resid.=  3.09677190750855E-05
(PID.TID 0000.0001)  cg2d: iter=    37 ; resid.=  2.29749387187987E-05
(PID.TID 0000.0001)  cg2d: iter=    38 ; resid.=  2.05600065161723E-05
(PID.TID 0000.0001)  cg2d: iter=    39 ; resid.=  1.87461286702966E-05
(PID.TID 0000.0001)  cg2d: iter=    40 ; resid.=  1.66851595720154E-05
(PID.TID 0000.0001)  cg2d: iter=    41 ; resid.=  1.38464658175570E-05
(PID.TID 0000.0001)  cg2d: iter=    42 ; resid.=  1.17892372438382E-05
(PID.TID 0000.0001)  cg2d: iter=    43 ; resid.=  1.07779471615702E-05
(PID.TID 0000.0001)  cg2d: iter=    44 ; resid.=  9.96115113207638E-06
(PID.TID 0000.0001)  cg2d: iter=    45 ; resid.=  8.54979681360753E-06
(PID.TID 0000.0001)  cg2d: iter=    46 ; resid.=  7.15962039805691E-06
(PID.TID 0000.0001)  cg2d: iter=    47 ; resid.=  5.86988501161749E-06
(PID.TID 0000.0001)  cg2d: iter=    48 ; resid.=  4.83101654417484E-06
(PID.TID 0000.0001)  cg2d: iter=    49 ; resid.=  4.20189405135643E-06
(PID.TID 0000.0001)  cg2d: iter=    50 ; resid.=  3.48293001911434E-06
(PID.TID 0000.0001)  cg2d: iter=    51 ; resid.=  2.82462470876190E-06
(PID.TID 0000.0001)  cg2d: iter=    52 ; resid.=  2.34734320266081E-06
(PID.TID 0000.0001)  cg2d: iter=    53 ; resid.=  1.93922635600083E-06
(PID.TID 0000.0001)  cg2d: iter=    54 ; resid.=  1.68163848784083E-06
(PID.TID 0000.0001)  cg2d: iter=    55 ; resid.=  1.44143191679598E-06
(PID.TID 0000.0001)  cg2d: iter=    56 ; resid.=  1.13391146075953E-06
(PID.TID 0000.0001)  cg2d: iter=    57 ; resid.=  9.32477003216146E-07
(PID.TID 0000.0001)  cg2d: iter=    58 ; resid.=  7.33081516246736E-07
(PID.TID 0000.0001)  cg2d: iter=    59 ; resid.=  6.04545755848519E-07
(PID.TID 0000.0001)  cg2d: iter=    60 ; resid.=  4.94641103553171E-07
(PID.TID 0000.0001)  cg2d: iter=    61 ; resid.=  4.00185443002757E-07
(PID.TID 0000.0001)  cg2d: iter=    62 ; resid.=  3.10935802149891E-07
(PID.TID 0000.0001)  cg2d: iter=    63 ; resid.=  2.53555853910659E-07
(PID.TID 0000.0001)  cg2d: iter=    64 ; resid.=  2.19458297006603E-07
(PID.TID 0000.0001)  cg2d: iter=    65 ; resid.=  1.88231802695206E-07
(PID.TID 0000.0001)  cg2d: iter=    66 ; resid.=  1.49601681621407E-07
(PID.TID 0000.0001)  cg2d: iter=    67 ; resid.=  1.13318236240716E-07
(PID.TID 0000.0001)  cg2d: iter=    68 ; resid.=  9.58102109495642E-08
(PID.TID 0000.0001)  cg2d: iter=    69 ; resid.=  7.96549770418620E-08
(PID.TID 0000.0001)  cg2d: iter=    70 ; resid.=  6.88166887858641E-08
(PID.TID 0000.0001)  cg2d: iter=    71 ; resid.=  5.84677093355068E-08
(PID.TID 0000.0001)  cg2d: iter=    72 ; resid.=  4.52557292433219E-08
(PID.TID 0000.0001)  cg2d: iter=    73 ; resid.=  3.96489891535558E-08
(PID.TID 0000.0001)  cg2d: iter=    74 ; resid.=  3.31792580557209E-08
(PID.TID 0000.0001)  cg2d: iter=    75 ; resid.=  2.67067535971650E-08
(PID.TID 0000.0001)  cg2d: iter=    76 ; resid.=  2.17845139640273E-08
(PID.TID 0000.0001)  cg2d: iter=    77 ; resid.=  1.87666822641283E-08
(PID.TID 0000.0001)  cg2d: iter=    78 ; resid.=  1.62606914979677E-08
(PID.TID 0000.0001)  cg2d: iter=    79 ; resid.=  1.39741754760532E-08
(PID.TID 0000.0001)  cg2d: iter=    80 ; resid.=  1.08136738648210E-08
(PID.TID 0000.0001)  cg2d: iter=    81 ; resid.=  9.09234048714682E-09
(PID.TID 0000.0001)  cg2d: iter=    82 ; resid.=  7.57787723215041E-09
(PID.TID 0000.0001)  cg2d: iter=    83 ; resid.=  6.14968764022255E-09
(PID.TID 0000.0001)  cg2d: iter=    84 ; resid.=  4.50881878241651E-09
(PID.TID 0000.0001)  cg2d: iter=    85 ; resid.=  3.41589332129479E-09
(PID.TID 0000.0001)  cg2d: iter=    86 ; resid.=  2.43297511724251E-09
(PID.TID 0000.0001)  cg2d: iter=    87 ; resid.=  1.77304016746915E-09
(PID.TID 0000.0001)  cg2d: iter=    88 ; resid.=  1.26838360618438E-09
(PID.TID 0000.0001)  cg2d: iter=    89 ; resid.=  9.89438672350244E-10
(PID.TID 0000.0001)  cg2d: iter=    90 ; resid.=  8.22059281033369E-10
(PID.TID 0000.0001)  cg2d: iter=    91 ; resid.=  7.46575343779094E-10
(PID.TID 0000.0001)  cg2d: iter=    92 ; resid.=  7.04119636101734E-10
(PID.TID 0000.0001)  cg2d: iter=    93 ; resid.=  5.64950902354890E-10
(PID.TID 0000.0001)  cg2d: iter=    94 ; resid.=  4.66143346663080E-10
(PID.TID 0000.0001)  cg2d: iter=    95 ; resid.=  3.59470213714873E-10
(PID.TID 0000.0001)  cg2d: iter=    96 ; resid.=  2.86014399316356E-10
(PID.TID 0000.0001)  cg2d: iter=    97 ; resid.=  2.29986305221759E-10
(PID.TID 0000.0001)  cg2d: iter=    98 ; resid.=  1.86200679983047E-10
(PID.TID 0000.0001)  cg2d: iter=    99 ; resid.=  1.41124121374855E-10
(PID.TID 0000.0001)  cg2d: iter=   100 ; resid.=  1.14763430684805E-10
(PID.TID 0000.0001)  cg2d: iter=   101 ; resid.=  9.57847050593075E-11
(PID.TID 0000.0001)  cg2d: iter=   102 ; resid.=  8.13298563263248E-11
(PID.TID 0000.0001)  cg2d: iter=   103 ; resid.=  6.38514335483078E-11
(PID.TID 0000.0001)  cg2d: iter=   104 ; resid.=  4.90563503269289E-11
(PID.TID 0000.0001)  cg2d: iter=   105 ; resid.=  4.02383821727822E-11
(PID.TID 0000.0001)  cg2d: iter=   106 ; resid.=  3.02014389005668E-11
(PID.TID 0000.0001)  cg2d: iter=   107 ; resid.=  2.28851350185854E-11
(PID.TID 0000.0001)  cg2d: iter=   108 ; resid.=  1.74735071100343E-11
(PID.TID 0000.0001)  cg2d: iter=   109 ; resid.=  1.29192983714768E-11
(PID.TID 0000.0001)  cg2d: iter=   110 ; resid.=  9.17979235039160E-12
(PID.TID 0000.0001)  cg2d: iter=   111 ; resid.=  6.45768801941495E-12
(PID.TID 0000.0001)  cg2d: iter=   112 ; resid.=  4.89200930358790E-12
(PID.TID 0000.0001)  cg2d: iter=   113 ; resid.=  3.91159387699404E-12
(PID.TID 0000.0001)  cg2d: iter=   114 ; resid.=  3.15333694414231E-12
(PID.TID 0000.0001)  cg2d: iter=   115 ; resid.=  2.67620423835348E-12
(PID.TID 0000.0001)  cg2d: iter=   116 ; resid.=  2.18125633339323E-12
(PID.TID 0000.0001)  cg2d: iter=   117 ; resid.=  1.64713425809028E-12
(PID.TID 0000.0001)  cg2d: iter=   118 ; resid.=  1.23153096807632E-12
(PID.TID 0000.0001)  cg2d: iter=   119 ; resid.=  1.00630977442675E-12
(PID.TID 0000.0001)  cg2d: iter=   120 ; resid.=  7.38277110111467E-13
(PID.TID 0000.0001)  cg2d: iter=   121 ; resid.=  5.25752685122042E-13
(PID.TID 0000.0001)  cg2d: iter=   122 ; resid.=  3.69328397972443E-13
(PID.TID 0000.0001)  cg2d: iter=   123 ; resid.=  2.83942042681223E-13
(PID.TID 0000.0001)  cg2d: iter=   124 ; resid.=  2.09862573560266E-13
(PID.TID 0000.0001)  cg2d: iter=   125 ; resid.=  1.61084513963155E-13
(PID.TID 0000.0001)  cg2d: iter=   126 ; resid.=  1.29206645512138E-13
(PID.TID 0000.0001)  cg2d: iter=   127 ; resid.=  9.18723334398468E-14
DEBUG_STATS_RL:    cg2d_x (SOLVE_FOR_PRESSURE)  min= -1.83708865738677E+01
DEBUG_STATS_RL:    cg2d_x (SOLVE_FOR_PRESSURE)  max=  9.05811954509411E+00
DEBUG_STATS_RL:    cg2d_x (SOLVE_FOR_PRESSURE) mean= -1.90592067424255E+00
DEBUG_STATS_RL:    cg2d_x (SOLVE_FOR_PRESSURE) S.D.=  7.34660665888252E+00
(PID.TID 0000.0001)      cg2d_init_res =   1.60082175373769E-01
(PID.TID 0000.0001)      cg2d_iters(min,last) =      -1     127
(PID.TID 0000.0001)      cg2d_last_res =   9.18723334398468E-14
(PID.TID 0000.0001) // =======================================================
(PID.TID 0000.0001) // Begin MONITOR dynamic field statistics
(PID.TID 0000.0001) // =======================================================
(PID.TID 0000.0001) %MON time_tsnumber                =                    97
(PID.TID 0000.0001) %MON time_secondsf                =   8.3808000000000E+06
(PID.TID 0000.0001) %MON dynstat_eta_max              =   9.2335571305756E-01
(PID.TID 0000.0001) %MON dynstat_eta_min              =  -1.8726693755219E+00
(PID.TID 0000.0001) %MON dynstat_eta_mean             =  -5.8598026890827E-03
(PID.TID 0000.0001) %MON dynstat_eta_sd               =   6.4749349431289E-01
(PID.TID 0000.0001) %MON dynstat_eta_del2             =   2.5226891975245E-03
(PID.TID 0000.0001) %MON dynstat_uvel_max             =   1.3026518151813E-01
(PID.TID 0000.0001) %MON dynstat_uvel_min             =  -1.2704031400284E-01
(PID.TID 0000.0001) %MON dynstat_uvel_mean            =   2.7145938943823E-03
(PID.TID 0000.0001) %MON dynstat_uvel_sd              =   1.3731328244093E-02
(PID.TID 0000.0001) %MON dynstat_uvel_del2            =   8.3597797031191E-05
(PID.TID 0000.0001) %MON dynstat_vvel_max             =   1.2233067344046E-01
(PID.TID 0000.0001) %MON dynstat_vvel_min             =  -8.7433329562309E-02
(PID.TID 0000.0001) %MON dynstat_vvel_mean            =   5.6213404121335E-06
(PID.TID 0000.0001) %MON dynstat_vvel_sd              =   7.4954597466258E-03
(PID.TID 0000.0001) %MON dynstat_vvel_del2            =   7.2503470839182E-05
(PID.TID 0000.0001) %MON dynstat_wvel_max             =   1.4077315948807E-04
(PID.TID 0000.0001) %MON dynstat_wvel_min             =  -5.7663393319336E-05
(PID.TID 0000.0001) %MON dynstat_wvel_mean            =   8.0565941627501E-24
(PID.TID 0000.0001) %MON dynstat_wvel_sd              =   8.7916940787067E-06
(PID.TID 0000.0001) %MON dynstat_wvel_del2            =   8.5898157941553E-08
(PID.TID 0000.0001) %MON dynstat_theta_max            =   3.1301951668507E+01
(PID.TID 0000.0001) %MON dynstat_theta_min            =  -1.9256071403580E+00
(PID.TID 0000.0001) %MON dynstat_theta_mean           =   3.6243493011003E+00
(PID.TID 0000.0001) %MON dynstat_theta_sd             =   4.4289625647004E+00
(PID.TID 0000.0001) %MON dynstat_theta_del2           =   4.7982263212914E-03
(PID.TID 0000.0001) %MON dynstat_salt_max             =   3.7475364203737E+01
(PID.TID 0000.0001) %MON dynstat_salt_min             =   2.9963532804433E+01
(PID.TID 0000.0001) %MON dynstat_salt_mean            =   3.4718007444417E+01
(PID.TID 0000.0001) %MON dynstat_salt_sd              =   2.9671748806913E-01
(PID.TID 0000.0001) %MON dynstat_salt_del2            =   9.9970504982259E-04
(PID.TID 0000.0001) %MON dynstat_sst_max              =   3.1301951668507E+01
(PID.TID 0000.0001) %MON dynstat_sst_min              =  -1.9256071403580E+00
(PID.TID 0000.0001) %MON dynstat_sst_mean             =   1.9023153792626E+01
(PID.TID 0000.0001) %MON dynstat_sst_sd               =   9.3026459456947E+00
(PID.TID 0000.0001) %MON dynstat_sst_del2             =   2.9455223879016E-02
(PID.TID 0000.0001) %MON dynstat_sss_max              =   3.7475364203737E+01
(PID.TID 0000.0001) %MON dynstat_sss_min              =   2.9963532804433E+01
(PID.TID 0000.0001) %MON dynstat_sss_mean             =   3.4835245924721E+01
(PID.TID 0000.0001) %MON dynstat_sss_sd               =   9.9373238770713E-01
(PID.TID 0000.0001) %MON dynstat_sss_del2             =   8.3676164550936E-03
(PID.TID 0000.0001) %MON forcing_qnet_max             =   1.7569776000977E+02
(PID.TID 0000.0001) %MON forcing_qnet_min             =  -1.5486766815186E+02
(PID.TID 0000.0001) %MON forcing_qnet_mean            =   1.0726990182177E+00
(PID.TID 0000.0001) %MON forcing_qnet_sd              =   4.1320424539580E+01
(PID.TID 0000.0001) %MON forcing_qnet_del2            =   7.8843737531048E-01
(PID.TID 0000.0001) %MON forcing_qsw_max              =   0.0000000000000E+00
(PID.TID 0000.0001) %MON forcing_qsw_min              =   0.0000000000000E+00
(PID.TID 0000.0001) %MON forcing_qsw_mean             =   0.0000000000000E+00
(PID.TID 0000.0001) %MON forcing_qsw_sd               =   0.0000000000000E+00
(PID.TID 0000.0001) %MON forcing_qsw_del2             =   0.0000000000000E+00
(PID.TID 0000.0001) %MON forcing_empmr_max            =   6.7089230526562E-05
(PID.TID 0000.0001) %MON forcing_empmr_min            =  -8.3576185261336E-05
(PID.TID 0000.0001) %MON forcing_empmr_mean           =   7.9358392299823E-08
(PID.TID 0000.0001) %MON forcing_empmr_sd             =   2.5503892670617E-05
(PID.TID 0000.0001) %MON forcing_empmr_del2           =   3.6761681237783E-07
(PID.TID 0000.0001) %MON forcing_fu_max               =   3.4493733644485E-01
(PID.TID 0000.0001) %MON forcing_fu_min               =  -4.0815093219280E-01
(PID.TID 0000.0001) %MON forcing_fu_mean              =   1.7785695264799E-02
(PID.TID 0000.0001) %MON forcing_fu_sd                =   1.0114758509639E-01
(PID.TID 0000.0001) %MON forcing_fu_del2              =   7.9173719462986E-04
(PID.TID 0000.0001) %MON forcing_fv_max               =   1.8128432035446E-01
(PID.TID 0000.0001) %MON forcing_fv_min               =  -1.4479391127825E-01
(PID.TID 0000.0001) %MON forcing_fv_mean              =  -6.7635653202109E-03
(PID.TID 0000.0001) %MON forcing_fv_sd                =   3.8824397894992E-02
(PID.TID 0000.0001) %MON forcing_fv_del2              =   4.2076797046063E-04
(PID.TID 0000.0001) %MON trAdv_CFL_u_max              =   4.6298249018795E-02
(PID.TID 0000.0001) %MON trAdv_CFL_v_max              =   2.3634734887112E-02
(PID.TID 0000.0001) %MON trAdv_CFL_w_max              =   3.0106148693117E-02
(PID.TID 0000.0001) %MON advcfl_uvel_max              =   4.6455467200626E-02
(PID.TID 0000.0001) %MON advcfl_vvel_max              =   2.3766887901355E-02
(PID.TID 0000.0001) %MON advcfl_wvel_max              =   3.3166074462338E-02
(PID.TID 0000.0001) %MON advcfl_W_hf_max              =   3.5604756408098E-02
(PID.TID 0000.0001) %MON pe_b_mean                    =   5.3652206413999E-04
(PID.TID 0000.0001) %MON ke_max                       =   9.9618959040789E-03
(PID.TID 0000.0001) %MON ke_mean                      =   1.1423123127065E-04
(PID.TID 0000.0001) %MON ke_vol                       =   1.3226782436723E+18
(PID.TID 0000.0001) %MON vort_r_min                   =  -3.5731639857653E-07
(PID.TID 0000.0001) %MON vort_r_max                   =   3.5879960885850E-07
(PID.TID 0000.0001) %MON vort_a_mean                  =  -2.5274807054428E-05
(PID.TID 0000.0001) %MON vort_a_sd                    =   7.3604717484569E-05
(PID.TID 0000.0001) %MON vort_p_mean                  =  -3.1845655367271E-05
(PID.TID 0000.0001) %MON vort_p_sd                    =   1.3162522412945E-04
(PID.TID 0000.0001) %MON surfExpan_theta_mean         =   7.3836965584808E-08
(PID.TID 0000.0001) %MON surfExpan_salt_mean          =   5.5136135596452E-09
(PID.TID 0000.0001) // =======================================================
(PID.TID 0000.0001) // End MONITOR dynamic field statistics
(PID.TID 0000.0001) // =======================================================
 EXTERNAL_FIELDS_LOAD,        97 : iP,iLd,i0,i1=    3    4    3    4 ; Wght=  0.2666666667  0.7333333333
 EXTERNAL_FIELDS_LOAD: (fu0,1),fu,fv= -2.7199E-02 -3.7252E-02 -3.4571E-02 -2.5979E-02
 EXTERNAL_FIELDS_LOAD: SST,SSS,Q,E-P= -2.3128E-02  3.4572E+01  1.3379E+02  8.1189E-06
DEBUG_STATS_RL:          Uvel (THERMODYNAMICS)  min= -1.27040314002841E-01
DEBUG_STATS_RL:          Uvel (THERMODYNAMICS)  max=  1.30265181518126E-01
DEBUG_STATS_RL:          Uvel (THERMODYNAMICS) mean=  6.21972463139203E-03
DEBUG_STATS_RL:          Uvel (THERMODYNAMICS) S.D.=  2.21006204337492E-02
DEBUG_STATS_RL:          Vvel (THERMODYNAMICS)  min= -8.74333295623091E-02
DEBUG_STATS_RL:          Vvel (THERMODYNAMICS)  max=  1.22330673440455E-01
DEBUG_STATS_RL:          Vvel (THERMODYNAMICS) mean=  8.31629001748096E-04
DEBUG_STATS_RL:          Vvel (THERMODYNAMICS) S.D.=  1.23483272367971E-02
DEBUG_STATS_RL:          Wvel (THERMODYNAMICS)  min= -5.76633933193356E-05
DEBUG_STATS_RL:          Wvel (THERMODYNAMICS)  max=  1.40773159488074E-04
DEBUG_STATS_RL:          Wvel (THERMODYNAMICS) mean= -3.33403668938565E-08
DEBUG_STATS_RL:          Wvel (THERMODYNAMICS) S.D.=  7.75534919754641E-06
DEBUG_STATS_RL:         Theta (THERMODYNAMICS)  min= -1.92461803380570E+00
DEBUG_STATS_RL:         Theta (THERMODYNAMICS)  max=  3.13121304338160E+01
DEBUG_STATS_RL:         Theta (THERMODYNAMICS) mean=  3.21912527432783E+00
DEBUG_STATS_RL:         Theta (THERMODYNAMICS) S.D.=  5.88863966015989E+00
DEBUG_STATS_RL:          Salt (THERMODYNAMICS)  min= -3.29597460435593E-17
DEBUG_STATS_RL:          Salt (THERMODYNAMICS)  max=  3.74762704300788E+01
DEBUG_STATS_RL:          Salt (THERMODYNAMICS) mean=  1.88446888305111E+01
DEBUG_STATS_RL:          Salt (THERMODYNAMICS) S.D.=  1.73002589241288E+01
DEBUG_STATS_RL:         GtNm1 (THERMODYNAMICS)  min= -2.63122075504966E-06
DEBUG_STATS_RL:         GtNm1 (THERMODYNAMICS)  max=  1.80682423433309E-06
DEBUG_STATS_RL:         GtNm1 (THERMODYNAMICS) mean= -2.98005947962905E-09
DEBUG_STATS_RL:         GtNm1 (THERMODYNAMICS) S.D.=  1.22219265132938E-07
DEBUG_STATS_RL:         GsNm1 (THERMODYNAMICS)  min= -2.78425281193818E-07
DEBUG_STATS_RL:         GsNm1 (THERMODYNAMICS)  max=  1.64001732560130E-07
DEBUG_STATS_RL:         GsNm1 (THERMODYNAMICS) mean= -2.26553183881156E-10
DEBUG_STATS_RL:         GsNm1 (THERMODYNAMICS) S.D.=  1.14084601139298E-08
DEBUG_STATS_RL:                EtaN (DYNAMICS)  min= -1.87266937552194E+00
DEBUG_STATS_RL:                EtaN (DYNAMICS)  max=  9.23355713057557E-01
DEBUG_STATS_RL:                EtaN (DYNAMICS) mean= -1.94283453031861E-01
DEBUG_STATS_RL:                EtaN (DYNAMICS) S.D.=  7.48889567674058E-01
DEBUG_STATS_RL:                Uvel (DYNAMICS)  min= -1.27040314002841E-01
DEBUG_STATS_RL:                Uvel (DYNAMICS)  max=  1.30265181518126E-01
DEBUG_STATS_RL:                Uvel (DYNAMICS) mean=  6.21972463139203E-03
DEBUG_STATS_RL:                Uvel (DYNAMICS) S.D.=  2.21006204337492E-02
DEBUG_STATS_RL:                Vvel (DYNAMICS)  min= -8.74333295623091E-02
DEBUG_STATS_RL:                Vvel (DYNAMICS)  max=  1.22330673440455E-01
DEBUG_STATS_RL:                Vvel (DYNAMICS) mean=  8.31629001748096E-04
DEBUG_STATS_RL:                Vvel (DYNAMICS) S.D.=  1.23483272367971E-02
DEBUG_STATS_RL:                Wvel (DYNAMICS)  min= -5.76633933193356E-05
DEBUG_STATS_RL:                Wvel (DYNAMICS)  max=  1.40773159488074E-04
DEBUG_STATS_RL:                Wvel (DYNAMICS) mean= -3.33403668938565E-08
DEBUG_STATS_RL:                Wvel (DYNAMICS) S.D.=  7.75534919754641E-06
DEBUG_STATS_RL:               Theta (DYNAMICS)  min= -1.92461803380570E+00
DEBUG_STATS_RL:               Theta (DYNAMICS)  max=  3.13121304338160E+01
DEBUG_STATS_RL:               Theta (DYNAMICS) mean=  3.21912527432783E+00
DEBUG_STATS_RL:               Theta (DYNAMICS) S.D.=  5.88863966015989E+00
DEBUG_STATS_RL:                Salt (DYNAMICS)  min= -3.29597460435593E-17
DEBUG_STATS_RL:                Salt (DYNAMICS)  max=  3.74762704300788E+01
DEBUG_STATS_RL:                Salt (DYNAMICS) mean=  1.88446888305111E+01
DEBUG_STATS_RL:                Salt (DYNAMICS) S.D.=  1.73002589241288E+01
DEBUG_STATS_RL:                  Gu (DYNAMICS)  min= -1.25997539329073E-01
DEBUG_STATS_RL:                  Gu (DYNAMICS)  max=  1.36578753426152E-01
DEBUG_STATS_RL:                  Gu (DYNAMICS) mean=  6.19516387129907E-03
DEBUG_STATS_RL:                  Gu (DYNAMICS) S.D.=  2.25654188169404E-02
DEBUG_STATS_RL:                  Gv (DYNAMICS)  min= -8.56400930875588E-02
DEBUG_STATS_RL:                  Gv (DYNAMICS)  max=  1.21665387209750E-01
DEBUG_STATS_RL:                  Gv (DYNAMICS) mean=  3.50940069369673E-03
DEBUG_STATS_RL:                  Gv (DYNAMICS) S.D.=  1.39553850169984E-02
DEBUG_STATS_RL:               GuNm1 (DYNAMICS)  min= -9.28601033354193E-06
DEBUG_STATS_RL:               GuNm1 (DYNAMICS)  max=  1.03064785832147E-05
DEBUG_STATS_RL:               GuNm1 (DYNAMICS) mean=  1.54726522675780E-08
DEBUG_STATS_RL:               GuNm1 (DYNAMICS) S.D.=  1.23017883790348E-06
DEBUG_STATS_RL:               GvNm1 (DYNAMICS)  min= -9.36261894771380E-06
DEBUG_STATS_RL:               GvNm1 (DYNAMICS)  max=  1.49950506771070E-05
DEBUG_STATS_RL:               GvNm1 (DYNAMICS) mean=  7.39773337451299E-07
DEBUG_STATS_RL:               GvNm1 (DYNAMICS) S.D.=  2.59812257450142E-06
DEBUG_STATS_RL:               GtNm1 (DYNAMICS)  min= -2.63122075504966E-06
DEBUG_STATS_RL:               GtNm1 (DYNAMICS)  max=  1.80682423433309E-06
DEBUG_STATS_RL:               GtNm1 (DYNAMICS) mean= -2.98005947962905E-09
DEBUG_STATS_RL:               GtNm1 (DYNAMICS) S.D.=  1.22219265132938E-07
DEBUG_STATS_RL:               GsNm1 (DYNAMICS)  min= -2.78425281193818E-07
DEBUG_STATS_RL:               GsNm1 (DYNAMICS)  max=  1.64001732560130E-07
DEBUG_STATS_RL:               GsNm1 (DYNAMICS) mean= -2.26553183881156E-10
DEBUG_STATS_RL:               GsNm1 (DYNAMICS) S.D.=  1.14084601139298E-08
DEBUG_STATS_RL:    cg2d_b (SOLVE_FOR_PRESSURE)  min= -2.85089279140029E+04
DEBUG_STATS_RL:    cg2d_b (SOLVE_FOR_PRESSURE)  max=  2.99186870084765E+04
DEBUG_STATS_RL:    cg2d_b (SOLVE_FOR_PRESSURE) mean=  5.62074809716555E+00
DEBUG_STATS_RL:    cg2d_b (SOLVE_FOR_PRESSURE) S.D.=  4.01001880414700E+03
 cg2d: Sum(rhs),rhsMax =   4.34913197937247E-01  1.96513946777859E+00
(PID.TID 0000.0001)  cg2d: iter=     1 ; resid.=  4.02895377916190E-02
(PID.TID 0000.0001)  cg2d: iter=     2 ; resid.=  1.95346040588583E-02
(PID.TID 0000.0001)  cg2d: iter=     3 ; resid.=  1.24549015190705E-02
(PID.TID 0000.0001)  cg2d: iter=     4 ; resid.=  1.12591596137888E-02
(PID.TID 0000.0001)  cg2d: iter=     5 ; resid.=  1.06314515829179E-02
(PID.TID 0000.0001)  cg2d: iter=     6 ; resid.=  9.99429945486942E-03
(PID.TID 0000.0001)  cg2d: iter=     7 ; resid.=  8.45525344646962E-03
(PID.TID 0000.0001)  cg2d: iter=     8 ; resid.=  7.29923238901661E-03
(PID.TID 0000.0001)  cg2d: iter=     9 ; resid.=  6.41481321733792E-03
(PID.TID 0000.0001)  cg2d: iter=    10 ; resid.=  5.47289192160854E-03
(PID.TID 0000.0001)  cg2d: iter=    11 ; resid.=  4.68905479741968E-03
(PID.TID 0000.0001)  cg2d: iter=    12 ; resid.=  3.83803741574949E-03
(PID.TID 0000.0001)  cg2d: iter=    13 ; resid.=  3.24726630528863E-03
(PID.TID 0000.0001)  cg2d: iter=    14 ; resid.=  2.71470346846118E-03
(PID.TID 0000.0001)  cg2d: iter=    15 ; resid.=  2.23307043247748E-03
(PID.TID 0000.0001)  cg2d: iter=    16 ; resid.=  1.73816630543412E-03
(PID.TID 0000.0001)  cg2d: iter=    17 ; resid.=  1.40766445903535E-03
(PID.TID 0000.0001)  cg2d: iter=    18 ; resid.=  1.16415445361970E-03
(PID.TID 0000.0001)  cg2d: iter=    19 ; resid.=  9.84747010042360E-04
(PID.TID 0000.0001)  cg2d: iter=    20 ; resid.=  8.23920934939354E-04
(PID.TID 0000.0001)  cg2d: iter=    21 ; resid.=  6.63584820428817E-04
(PID.TID 0000.0001)  cg2d: iter=    22 ; resid.=  5.48523211801206E-04
(PID.TID 0000.0001)  cg2d: iter=    23 ; resid.=  3.98866420669440E-04
(PID.TID 0000.0001)  cg2d: iter=    24 ; resid.=  3.18170721026421E-04
(PID.TID 0000.0001)  cg2d: iter=    25 ; resid.=  2.89641347543240E-04
(PID.TID 0000.0001)  cg2d: iter=    26 ; resid.=  2.46694279668791E-04
(PID.TID 0000.0001)  cg2d: iter=    27 ; resid.=  2.04185350738825E-04
(PID.TID 0000.0001)  cg2d: iter=    28 ; resid.=  1.82045964247777E-04
(PID.TID 0000.0001)  cg2d: iter=    29 ; resid.=  1.58923476426658E-04
(PID.TID 0000.0001)  cg2d: iter=    30 ; resid.=  1.33566747280476E-04
(PID.TID 0000.0001)  cg2d: iter=    31 ; resid.=  1.10984513969907E-04
(PID.TID 0000.0001)  cg2d: iter=    32 ; resid.=  9.19997209070298E-05
(PID.TID 0000.0001)  cg2d: iter=    33 ; resid.=  6.96956150238777E-05
(PID.TID 0000.0001)  cg2d: iter=    34 ; resid.=  5.55522347075681E-05
(PID.TID 0000.0001)  cg2d: iter=    35 ; resid.=  4.31721606202879E-05
(PID.TID 0000.0001)  cg2d: iter=    36 ; resid.=  2.92493271867577E-05
(PID.TID 0000.0001)  cg2d: iter=    37 ; resid.=  2.08774685000861E-05
(PID.TID 0000.0001)  cg2d: iter=    38 ; resid.=  1.78318753574019E-05
(PID.TID 0000.0001)  cg2d: iter=    39 ; resid.=  1.57472912909285E-05
(PID.TID 0000.0001)  cg2d: iter=    40 ; resid.=  1.39107970163760E-05
(PID.TID 0000.0001)  cg2d: iter=    41 ; resid.=  1.15893088341769E-05
(PID.TID 0000.0001)  cg2d: iter=    42 ; resid.=  1.00375225579236E-05
(PID.TID 0000.0001)  cg2d: iter=    43 ; resid.=  9.42566293490142E-06
(PID.TID 0000.0001)  cg2d: iter=    44 ; resid.=  9.25246047099077E-06
(PID.TID 0000.0001)  cg2d: iter=    45 ; resid.=  8.27763298815547E-06
(PID.TID 0000.0001)  cg2d: iter=    46 ; resid.=  6.98106224622002E-06
(PID.TID 0000.0001)  cg2d: iter=    47 ; resid.=  5.57667755573190E-06
(PID.TID 0000.0001)  cg2d: iter=    48 ; resid.=  4.44133990133462E-06
(PID.TID 0000.0001)  cg2d: iter=    49 ; resid.=  3.75140887194983E-06
(PID.TID 0000.0001)  cg2d: iter=    50 ; resid.=  3.04229573961410E-06
(PID.TID 0000.0001)  cg2d: iter=    51 ; resid.=  2.43370943766636E-06
(PID.TID 0000.0001)  cg2d: iter=    52 ; resid.=  1.95084680378673E-06
(PID.TID 0000.0001)  cg2d: iter=    53 ; resid.=  1.56261136516199E-06
(PID.TID 0000.0001)  cg2d: iter=    54 ; resid.=  1.29234936173270E-06
(PID.TID 0000.0001)  cg2d: iter=    55 ; resid.=  1.07862946161284E-06
(PID.TID 0000.0001)  cg2d: iter=    56 ; resid.=  8.31113188103107E-07
(PID.TID 0000.0001)  cg2d: iter=    57 ; resid.=  6.84727479112501E-07
(PID.TID 0000.0001)  cg2d: iter=    58 ; resid.=  5.39699100634828E-07
(PID.TID 0000.0001)  cg2d: iter=    59 ; resid.=  4.42250630476936E-07
(PID.TID 0000.0001)  cg2d: iter=    60 ; resid.=  3.59495340039947E-07
(PID.TID 0000.0001)  cg2d: iter=    61 ; resid.=  2.91427547097144E-07
(PID.TID 0000.0001)  cg2d: iter=    62 ; resid.=  2.26277006580436E-07
(PID.TID 0000.0001)  cg2d: iter=    63 ; resid.=  1.83979584459922E-07
(PID.TID 0000.0001)  cg2d: iter=    64 ; resid.=  1.62706456161154E-07
(PID.TID 0000.0001)  cg2d: iter=    65 ; resid.=  1.47473163810056E-07
(PID.TID 0000.0001)  cg2d: iter=    66 ; resid.=  1.23204417882852E-07
(PID.TID 0000.0001)  cg2d: iter=    67 ; resid.=  9.35447065635939E-08
(PID.TID 0000.0001)  cg2d: iter=    68 ; resid.=  7.72953330860847E-08
(PID.TID 0000.0001)  cg2d: iter=    69 ; resid.=  6.35891250976939E-08
(PID.TID 0000.0001)  cg2d: iter=    70 ; resid.=  5.55686363026610E-08
(PID.TID 0000.0001)  cg2d: iter=    71 ; resid.=  4.79146270099067E-08
(PID.TID 0000.0001)  cg2d: iter=    72 ; resid.=  3.72385566773532E-08
(PID.TID 0000.0001)  cg2d: iter=    73 ; resid.=  3.18706867063704E-08
(PID.TID 0000.0001)  cg2d: iter=    74 ; resid.=  2.61479151406503E-08
(PID.TID 0000.0001)  cg2d: iter=    75 ; resid.=  2.03305220319990E-08
(PID.TID 0000.0001)  cg2d: iter=    76 ; resid.=  1.58081016340930E-08
(PID.TID 0000.0001)  cg2d: iter=    77 ; resid.=  1.28528896641186E-08
(PID.TID 0000.0001)  cg2d: iter=    78 ; resid.=  1.07094833316806E-08
(PID.TID 0000.0001)  cg2d: iter=    79 ; resid.=  9.12684956816945E-09
(PID.TID 0000.0001)  cg2d: iter=    80 ; resid.=  7.25369573187771E-09
(PID.TID 0000.0001)  cg2d: iter=    81 ; resid.=  6.21265939349352E-09
(PID.TID 0000.0001)  cg2d: iter=    82 ; resid.=  5.41277887830327E-09
(PID.TID 0000.0001)  cg2d: iter=    83 ; resid.=  4.79374767088956E-09
(PID.TID 0000.0001)  cg2d: iter=    84 ; resid.=  3.76932358857530E-09
(PID.TID 0000.0001)  cg2d: iter=    85 ; resid.=  3.01784152926010E-09
(PID.TID 0000.0001)  cg2d: iter=    86 ; resid.=  2.26279562289818E-09
(PID.TID 0000.0001)  cg2d: iter=    87 ; resid.=  1.67726882917893E-09
(PID.TID 0000.0001)  cg2d: iter=    88 ; resid.=  1.18483622020574E-09
(PID.TID 0000.0001)  cg2d: iter=    89 ; resid.=  8.85136152237645E-10
(PID.TID 0000.0001)  cg2d: iter=    90 ; resid.=  6.89249467675179E-10
(PID.TID 0000.0001)  cg2d: iter=    91 ; resid.=  5.87507924255940E-10
(PID.TID 0000.0001)  cg2d: iter=    92 ; resid.=  5.46981462795364E-10
(PID.TID 0000.0001)  cg2d: iter=    93 ; resid.=  4.51053620434134E-10
(PID.TID 0000.0001)  cg2d: iter=    94 ; resid.=  3.80934326700198E-10
(PID.TID 0000.0001)  cg2d: iter=    95 ; resid.=  2.95991156854215E-10
(PID.TID 0000.0001)  cg2d: iter=    96 ; resid.=  2.35755964997839E-10
(PID.TID 0000.0001)  cg2d: iter=    97 ; resid.=  1.86347850834488E-10
(PID.TID 0000.0001)  cg2d: iter=    98 ; resid.=  1.49254075645850E-10
(PID.TID 0000.0001)  cg2d: iter=    99 ; resid.=  1.12650249395632E-10
(PID.TID 0000.0001)  cg2d: iter=   100 ; resid.=  8.77925334089771E-11
(PID.TID 0000.0001)  cg2d: iter=   101 ; resid.=  7.16662346728804E-11
(PID.TID 0000.0001)  cg2d: iter=   102 ; resid.=  6.15936933089256E-11
(PID.TID 0000.0001)  cg2d: iter=   103 ; resid.=  4.93757684313420E-11
(PID.TID 0000.0001)  cg2d: iter=   104 ; resid.=  3.91888243225536E-11
(PID.TID 0000.0001)  cg2d: iter=   105 ; resid.=  3.38191243955222E-11
(PID.TID 0000.0001)  cg2d: iter=   106 ; resid.=  2.68691900660736E-11
(PID.TID 0000.0001)  cg2d: iter=   107 ; resid.=  2.08737978066032E-11
(PID.TID 0000.0001)  cg2d: iter=   108 ; resid.=  1.61508287652068E-11
(PID.TID 0000.0001)  cg2d: iter=   109 ; resid.=  1.21454226912338E-11
(PID.TID 0000.0001)  cg2d: iter=   110 ; resid.=  8.91754444778229E-12
(PID.TID 0000.0001)  cg2d: iter=   111 ; resid.=  6.37799356456422E-12
(PID.TID 0000.0001)  cg2d: iter=   112 ; resid.=  4.72432737755654E-12
(PID.TID 0000.0001)  cg2d: iter=   113 ; resid.=  3.59669872123617E-12
(PID.TID 0000.0001)  cg2d: iter=   114 ; resid.=  2.81087096699952E-12
(PID.TID 0000.0001)  cg2d: iter=   115 ; resid.=  2.40066154922760E-12
(PID.TID 0000.0001)  cg2d: iter=   116 ; resid.=  2.02137719320182E-12
(PID.TID 0000.0001)  cg2d: iter=   117 ; resid.=  1.57445069796829E-12
(PID.TID 0000.0001)  cg2d: iter=   118 ; resid.=  1.17558763492019E-12
(PID.TID 0000.0001)  cg2d: iter=   119 ; resid.=  9.47609055729705E-13
(PID.TID 0000.0001)  cg2d: iter=   120 ; resid.=  7.13121129086455E-13
(PID.TID 0000.0001)  cg2d: iter=   121 ; resid.=  5.16356598646490E-13
(PID.TID 0000.0001)  cg2d: iter=   122 ; resid.=  3.52050017815002E-13
(PID.TID 0000.0001)  cg2d: iter=   123 ; resid.=  2.64077336492220E-13
(PID.TID 0000.0001)  cg2d: iter=   124 ; resid.=  1.95678488978448E-13
(PID.TID 0000.0001)  cg2d: iter=   125 ; resid.=  1.51089600031295E-13
(PID.TID 0000.0001)  cg2d: iter=   126 ; resid.=  1.21035919967074E-13
(PID.TID 0000.0001)  cg2d: iter=   127 ; resid.=  8.59048616538541E-14
DEBUG_STATS_RL:    cg2d_x (SOLVE_FOR_PRESSURE)  min= -1.84026378954287E+01
DEBUG_STATS_RL:    cg2d_x (SOLVE_FOR_PRESSURE)  max=  9.04176404166844E+00
DEBUG_STATS_RL:    cg2d_x (SOLVE_FOR_PRESSURE) mean= -1.90695048567511E+00
DEBUG_STATS_RL:    cg2d_x (SOLVE_FOR_PRESSURE) S.D.=  7.35272192066845E+00
(PID.TID 0000.0001)      cg2d_init_res =   1.57418982066512E-01
(PID.TID 0000.0001)      cg2d_iters(min,last) =      -1     127
(PID.TID 0000.0001)      cg2d_last_res =   8.59048616538541E-14
(PID.TID 0000.0001) // =======================================================
(PID.TID 0000.0001) // Begin MONITOR dynamic field statistics
(PID.TID 0000.0001) // =======================================================
(PID.TID 0000.0001) %MON time_tsnumber                =                    98
(PID.TID 0000.0001) %MON time_secondsf                =   8.4672000000000E+06
(PID.TID 0000.0001) %MON dynstat_eta_max              =   9.2168848538927E-01
(PID.TID 0000.0001) %MON dynstat_eta_min              =  -1.8759060036116E+00
(PID.TID 0000.0001) %MON dynstat_eta_mean             =  -5.8645536896365E-03
(PID.TID 0000.0001) %MON dynstat_eta_sd               =   6.4814555246162E-01
(PID.TID 0000.0001) %MON dynstat_eta_del2             =   2.5261493719943E-03
(PID.TID 0000.0001) %MON dynstat_uvel_max             =   1.3299457259920E-01
(PID.TID 0000.0001) %MON dynstat_uvel_min             =  -1.2598010516283E-01
(PID.TID 0000.0001) %MON dynstat_uvel_mean            =   2.7123902296179E-03
(PID.TID 0000.0001) %MON dynstat_uvel_sd              =   1.3752360818212E-02
(PID.TID 0000.0001) %MON dynstat_uvel_del2            =   8.3735707344822E-05
(PID.TID 0000.0001) %MON dynstat_vvel_max             =   1.2272590886001E-01
(PID.TID 0000.0001) %MON dynstat_vvel_min             =  -8.8221016928824E-02
(PID.TID 0000.0001) %MON dynstat_vvel_mean            =   5.4801366076801E-06
(PID.TID 0000.0001) %MON dynstat_vvel_sd              =   7.4747244260298E-03
(PID.TID 0000.0001) %MON dynstat_vvel_del2            =   7.2308477241717E-05
(PID.TID 0000.0001) %MON dynstat_wvel_max             =   1.4435836838695E-04
(PID.TID 0000.0001) %MON dynstat_wvel_min             =  -5.8361680657497E-05
(PID.TID 0000.0001) %MON dynstat_wvel_mean            =  -2.4313138256271E-23
(PID.TID 0000.0001) %MON dynstat_wvel_sd              =   8.7904313651634E-06
(PID.TID 0000.0001) %MON dynstat_wvel_del2            =   8.5561544327568E-08
(PID.TID 0000.0001) %MON dynstat_theta_max            =   3.1312130433816E+01
(PID.TID 0000.0001) %MON dynstat_theta_min            =  -1.9246180338057E+00
(PID.TID 0000.0001) %MON dynstat_theta_mean           =   3.6243388240572E+00
(PID.TID 0000.0001) %MON dynstat_theta_sd             =   4.4289610241525E+00
(PID.TID 0000.0001) %MON dynstat_theta_del2           =   4.7954286939082E-03
(PID.TID 0000.0001) %MON dynstat_salt_max             =   3.7476270430079E+01
(PID.TID 0000.0001) %MON dynstat_salt_min             =   2.9966447920800E+01
(PID.TID 0000.0001) %MON dynstat_salt_mean            =   3.4718007599795E+01
(PID.TID 0000.0001) %MON dynstat_salt_sd              =   2.9672587875072E-01
(PID.TID 0000.0001) %MON dynstat_salt_del2            =   9.9961013524309E-04
(PID.TID 0000.0001) %MON dynstat_sst_max              =   3.1312130433816E+01
(PID.TID 0000.0001) %MON dynstat_sst_min              =  -1.9246180338057E+00
(PID.TID 0000.0001) %MON dynstat_sst_mean             =   1.9018964953401E+01
(PID.TID 0000.0001) %MON dynstat_sst_sd               =   9.3099088995008E+00
(PID.TID 0000.0001) %MON dynstat_sst_del2             =   2.9462794962906E-02
(PID.TID 0000.0001) %MON dynstat_sss_max              =   3.7476270430079E+01
(PID.TID 0000.0001) %MON dynstat_sss_min              =   2.9966447920800E+01
(PID.TID 0000.0001) %MON dynstat_sss_mean             =   3.4835005758928E+01
(PID.TID 0000.0001) %MON dynstat_sss_sd               =   9.9415303580893E-01
(PID.TID 0000.0001) %MON dynstat_sss_del2             =   8.3711418161607E-03
(PID.TID 0000.0001) %MON forcing_qnet_max             =   1.7099252522786E+02
(PID.TID 0000.0001) %MON forcing_qnet_min             =  -1.5443967183431E+02
(PID.TID 0000.0001) %MON forcing_qnet_mean            =   1.4697354471873E+00
(PID.TID 0000.0001) %MON forcing_qnet_sd              =   4.1898539270687E+01
(PID.TID 0000.0001) %MON forcing_qnet_del2            =   7.9096758072099E-01
(PID.TID 0000.0001) %MON forcing_qsw_max              =   0.0000000000000E+00
(PID.TID 0000.0001) %MON forcing_qsw_min              =   0.0000000000000E+00
(PID.TID 0000.0001) %MON forcing_qsw_mean             =   0.0000000000000E+00
(PID.TID 0000.0001) %MON forcing_qsw_sd               =   0.0000000000000E+00
(PID.TID 0000.0001) %MON forcing_qsw_del2             =   0.0000000000000E+00
(PID.TID 0000.0001) %MON forcing_empmr_max            =   6.6993059514668E-05
(PID.TID 0000.0001) %MON forcing_empmr_min            =  -8.3591031341257E-05
(PID.TID 0000.0001) %MON forcing_empmr_mean           =   5.6913027472259E-08
(PID.TID 0000.0001) %MON forcing_empmr_sd             =   2.5506549223614E-05
(PID.TID 0000.0001) %MON forcing_empmr_del2           =   3.6847966604449E-07
(PID.TID 0000.0001) %MON forcing_fu_max               =   3.4444528222084E-01
(PID.TID 0000.0001) %MON forcing_fu_min               =  -4.0908400416374E-01
(PID.TID 0000.0001) %MON forcing_fu_mean              =   1.7658503167866E-02
(PID.TID 0000.0001) %MON forcing_fu_sd                =   1.0136293778860E-01
(PID.TID 0000.0001) %MON forcing_fu_del2              =   7.9668426587324E-04
(PID.TID 0000.0001) %MON forcing_fv_max               =   1.8118831912676E-01
(PID.TID 0000.0001) %MON forcing_fv_min               =  -1.4509931405385E-01
(PID.TID 0000.0001) %MON forcing_fv_mean              =  -6.7270886478379E-03
(PID.TID 0000.0001) %MON forcing_fv_sd                =   3.8931335911595E-02
(PID.TID 0000.0001) %MON forcing_fv_del2              =   4.2395820174704E-04
(PID.TID 0000.0001) %MON trAdv_CFL_u_max              =   4.6464902638270E-02
(PID.TID 0000.0001) %MON trAdv_CFL_v_max              =   2.3728263039714E-02
(PID.TID 0000.0001) %MON trAdv_CFL_w_max              =   3.1040044048085E-02
(PID.TID 0000.0001) %MON advcfl_uvel_max              =   4.6416526318446E-02
(PID.TID 0000.0001) %MON advcfl_vvel_max              =   2.3843675804561E-02
(PID.TID 0000.0001) %MON advcfl_wvel_max              =   3.4112934121714E-02
(PID.TID 0000.0001) %MON advcfl_W_hf_max              =   3.6621238101252E-02
(PID.TID 0000.0001) %MON pe_b_mean                    =   5.3760319978974E-04
(PID.TID 0000.0001) %MON ke_max                       =   9.9422557427097E-03
(PID.TID 0000.0001) %MON ke_mean                      =   1.1434905803558E-04
(PID.TID 0000.0001) %MON ke_vol                       =   1.3226782436723E+18
(PID.TID 0000.0001) %MON vort_r_min                   =  -3.5956955642540E-07
(PID.TID 0000.0001) %MON vort_r_max                   =   3.5881456176211E-07
(PID.TID 0000.0001) %MON vort_a_mean                  =  -2.5274807064572E-05
(PID.TID 0000.0001) %MON vort_a_sd                    =   7.3604716155592E-05
(PID.TID 0000.0001) %MON vort_p_mean                  =  -3.1845655380052E-05
(PID.TID 0000.0001) %MON vort_p_sd                    =   1.3162525694340E-04
(PID.TID 0000.0001) %MON surfExpan_theta_mean         =   6.2813035394352E-08
(PID.TID 0000.0001) %MON surfExpan_salt_mean          =   8.2061757252750E-09
(PID.TID 0000.0001) // =======================================================
(PID.TID 0000.0001) // End MONITOR dynamic field statistics
(PID.TID 0000.0001) // =======================================================
 EXTERNAL_FIELDS_LOAD,        98 : iP,iLd,i0,i1=    3    4    3    4 ; Wght=  0.2333333333  0.7666666667
 EXTERNAL_FIELDS_LOAD: (fu0,1),fu,fv= -2.7199E-02 -3.7252E-02 -3.4906E-02 -2.7134E-02
 EXTERNAL_FIELDS_LOAD: SST,SSS,Q,E-P= -1.5820E-02  3.4571E+01  1.3008E+02  8.0751E-06
DEBUG_STATS_RL:          Uvel (THERMODYNAMICS)  min= -1.25980105162826E-01
DEBUG_STATS_RL:          Uvel (THERMODYNAMICS)  max=  1.32994572599195E-01
DEBUG_STATS_RL:          Uvel (THERMODYNAMICS) mean=  6.21994839053680E-03
DEBUG_STATS_RL:          Uvel (THERMODYNAMICS) S.D.=  2.21507971681082E-02
DEBUG_STATS_RL:          Vvel (THERMODYNAMICS)  min= -8.82210169288236E-02
DEBUG_STATS_RL:          Vvel (THERMODYNAMICS)  max=  1.22725908860011E-01
DEBUG_STATS_RL:          Vvel (THERMODYNAMICS) mean=  8.37292447030115E-04
DEBUG_STATS_RL:          Vvel (THERMODYNAMICS) S.D.=  1.23234810532171E-02
DEBUG_STATS_RL:          Wvel (THERMODYNAMICS)  min= -5.83616806574970E-05
DEBUG_STATS_RL:          Wvel (THERMODYNAMICS)  max=  1.44358368386949E-04
DEBUG_STATS_RL:          Wvel (THERMODYNAMICS) mean= -2.87961485342605E-08
DEBUG_STATS_RL:          Wvel (THERMODYNAMICS) S.D.=  7.74862498651031E-06
DEBUG_STATS_RL:         Theta (THERMODYNAMICS)  min= -1.92363070941284E+00
DEBUG_STATS_RL:         Theta (THERMODYNAMICS)  max=  3.13218040601152E+01
DEBUG_STATS_RL:         Theta (THERMODYNAMICS) mean=  3.21891896109437E+00
DEBUG_STATS_RL:         Theta (THERMODYNAMICS) S.D.=  5.88854176527525E+00
DEBUG_STATS_RL:          Salt (THERMODYNAMICS)  min= -3.29597460435593E-17
DEBUG_STATS_RL:          Salt (THERMODYNAMICS)  max=  3.74771853704674E+01
DEBUG_STATS_RL:          Salt (THERMODYNAMICS) mean=  1.88446822663230E+01
DEBUG_STATS_RL:          Salt (THERMODYNAMICS) S.D.=  1.73002537270949E+01
DEBUG_STATS_RL:         GtNm1 (THERMODYNAMICS)  min= -2.55594149534290E-06
DEBUG_STATS_RL:         GtNm1 (THERMODYNAMICS)  max=  1.76685386301189E-06
DEBUG_STATS_RL:         GtNm1 (THERMODYNAMICS) mean= -3.11131068068306E-09
DEBUG_STATS_RL:         GtNm1 (THERMODYNAMICS) S.D.=  1.21327359962565E-07
DEBUG_STATS_RL:         GsNm1 (THERMODYNAMICS)  min= -2.56893646167938E-07
DEBUG_STATS_RL:         GsNm1 (THERMODYNAMICS)  max=  1.61621267213939E-07
DEBUG_STATS_RL:         GsNm1 (THERMODYNAMICS) mean= -2.18173038506886E-10
DEBUG_STATS_RL:         GsNm1 (THERMODYNAMICS) S.D.=  1.11798740313638E-08
DEBUG_STATS_RL:                EtaN (DYNAMICS)  min= -1.87590600361160E+00
DEBUG_STATS_RL:                EtaN (DYNAMICS)  max=  9.21688485389271E-01
DEBUG_STATS_RL:                EtaN (DYNAMICS) mean= -1.94388428713060E-01
DEBUG_STATS_RL:                EtaN (DYNAMICS) S.D.=  7.49512937886689E-01
DEBUG_STATS_RL:                Uvel (DYNAMICS)  min= -1.25980105162826E-01
DEBUG_STATS_RL:                Uvel (DYNAMICS)  max=  1.32994572599195E-01
DEBUG_STATS_RL:                Uvel (DYNAMICS) mean=  6.21994839053680E-03
DEBUG_STATS_RL:                Uvel (DYNAMICS) S.D.=  2.21507971681082E-02
DEBUG_STATS_RL:                Vvel (DYNAMICS)  min= -8.82210169288236E-02
DEBUG_STATS_RL:                Vvel (DYNAMICS)  max=  1.22725908860011E-01
DEBUG_STATS_RL:                Vvel (DYNAMICS) mean=  8.37292447030115E-04
DEBUG_STATS_RL:                Vvel (DYNAMICS) S.D.=  1.23234810532171E-02
DEBUG_STATS_RL:                Wvel (DYNAMICS)  min= -5.83616806574970E-05
DEBUG_STATS_RL:                Wvel (DYNAMICS)  max=  1.44358368386949E-04
DEBUG_STATS_RL:                Wvel (DYNAMICS) mean= -2.87961485342605E-08
DEBUG_STATS_RL:                Wvel (DYNAMICS) S.D.=  7.74862498651031E-06
DEBUG_STATS_RL:               Theta (DYNAMICS)  min= -1.92363070941284E+00
DEBUG_STATS_RL:               Theta (DYNAMICS)  max=  3.13218040601152E+01
DEBUG_STATS_RL:               Theta (DYNAMICS) mean=  3.21891896109437E+00
DEBUG_STATS_RL:               Theta (DYNAMICS) S.D.=  5.88854176527525E+00
DEBUG_STATS_RL:                Salt (DYNAMICS)  min= -3.29597460435593E-17
DEBUG_STATS_RL:                Salt (DYNAMICS)  max=  3.74771853704674E+01
DEBUG_STATS_RL:                Salt (DYNAMICS) mean=  1.88446822663230E+01
DEBUG_STATS_RL:                Salt (DYNAMICS) S.D.=  1.73002537270949E+01
DEBUG_STATS_RL:                  Gu (DYNAMICS)  min= -1.24938673509242E-01
DEBUG_STATS_RL:                  Gu (DYNAMICS)  max=  1.37918077782469E-01
DEBUG_STATS_RL:                  Gu (DYNAMICS) mean=  6.19512641114725E-03
DEBUG_STATS_RL:                  Gu (DYNAMICS) S.D.=  2.26102300706447E-02
DEBUG_STATS_RL:                  Gv (DYNAMICS)  min= -8.59942945828246E-02
DEBUG_STATS_RL:                  Gv (DYNAMICS)  max=  1.22046273483964E-01
DEBUG_STATS_RL:                  Gv (DYNAMICS) mean=  3.51374428644481E-03
DEBUG_STATS_RL:                  Gv (DYNAMICS) S.D.=  1.39419998616220E-02
DEBUG_STATS_RL:               GuNm1 (DYNAMICS)  min= -9.25553484557831E-06
DEBUG_STATS_RL:               GuNm1 (DYNAMICS)  max=  1.03407760127667E-05
DEBUG_STATS_RL:               GuNm1 (DYNAMICS) mean=  1.59103429923108E-08
DEBUG_STATS_RL:               GuNm1 (DYNAMICS) S.D.=  1.23115598565100E-06
DEBUG_STATS_RL:               GvNm1 (DYNAMICS)  min= -9.37392537153282E-06
DEBUG_STATS_RL:               GvNm1 (DYNAMICS)  max=  1.49798853845647E-05
DEBUG_STATS_RL:               GvNm1 (DYNAMICS) mean=  7.39987581660865E-07
DEBUG_STATS_RL:               GvNm1 (DYNAMICS) S.D.=  2.59770430204168E-06
DEBUG_STATS_RL:               GtNm1 (DYNAMICS)  min= -2.55594149534290E-06
DEBUG_STATS_RL:               GtNm1 (DYNAMICS)  max=  1.76685386301189E-06
DEBUG_STATS_RL:               GtNm1 (DYNAMICS) mean= -3.11131068068306E-09
DEBUG_STATS_RL:               GtNm1 (DYNAMICS) S.D.=  1.21327359962565E-07
DEBUG_STATS_RL:               GsNm1 (DYNAMICS)  min= -2.56893646167938E-07
DEBUG_STATS_RL:               GsNm1 (DYNAMICS)  max=  1.61621267213939E-07
DEBUG_STATS_RL:               GsNm1 (DYNAMICS) mean= -2.18173038506886E-10
DEBUG_STATS_RL:               GsNm1 (DYNAMICS) S.D.=  1.11798740313638E-08
DEBUG_STATS_RL:    cg2d_b (SOLVE_FOR_PRESSURE)  min= -2.87679640317562E+04
DEBUG_STATS_RL:    cg2d_b (SOLVE_FOR_PRESSURE)  max=  3.00800948660064E+04
DEBUG_STATS_RL:    cg2d_b (SOLVE_FOR_PRESSURE) mean=  5.62350578041800E+00
DEBUG_STATS_RL:    cg2d_b (SOLVE_FOR_PRESSURE) S.D.=  4.01496558642604E+03
 cg2d: Sum(rhs),rhsMax =   4.32791716238263E-01  1.97574116801871E+00
(PID.TID 0000.0001)  cg2d: iter=     1 ; resid.=  4.02216467240339E-02
(PID.TID 0000.0001)  cg2d: iter=     2 ; resid.=  1.91360375789063E-02
(PID.TID 0000.0001)  cg2d: iter=     3 ; resid.=  1.17360413440699E-02
(PID.TID 0000.0001)  cg2d: iter=     4 ; resid.=  9.69677464059854E-03
(PID.TID 0000.0001)  cg2d: iter=     5 ; resid.=  8.82329815253444E-03
(PID.TID 0000.0001)  cg2d: iter=     6 ; resid.=  8.18444285469273E-03
(PID.TID 0000.0001)  cg2d: iter=     7 ; resid.=  6.87096046847639E-03
(PID.TID 0000.0001)  cg2d: iter=     8 ; resid.=  5.90701890107955E-03
(PID.TID 0000.0001)  cg2d: iter=     9 ; resid.=  5.18282570401137E-03
(PID.TID 0000.0001)  cg2d: iter=    10 ; resid.=  4.58615179735305E-03
(PID.TID 0000.0001)  cg2d: iter=    11 ; resid.=  4.10892632694772E-03
(PID.TID 0000.0001)  cg2d: iter=    12 ; resid.=  3.44149929672780E-03
(PID.TID 0000.0001)  cg2d: iter=    13 ; resid.=  2.95321982598403E-03
(PID.TID 0000.0001)  cg2d: iter=    14 ; resid.=  2.45828725146447E-03
(PID.TID 0000.0001)  cg2d: iter=    15 ; resid.=  2.01291297018899E-03
(PID.TID 0000.0001)  cg2d: iter=    16 ; resid.=  1.56916755852538E-03
(PID.TID 0000.0001)  cg2d: iter=    17 ; resid.=  1.23752652156924E-03
(PID.TID 0000.0001)  cg2d: iter=    18 ; resid.=  1.00022492125928E-03
(PID.TID 0000.0001)  cg2d: iter=    19 ; resid.=  8.41892891509754E-04
(PID.TID 0000.0001)  cg2d: iter=    20 ; resid.=  7.10142360026335E-04
(PID.TID 0000.0001)  cg2d: iter=    21 ; resid.=  5.79042284036063E-04
(PID.TID 0000.0001)  cg2d: iter=    22 ; resid.=  4.79664979447183E-04
(PID.TID 0000.0001)  cg2d: iter=    23 ; resid.=  3.51391420623899E-04
(PID.TID 0000.0001)  cg2d: iter=    24 ; resid.=  2.72008828126231E-04
(PID.TID 0000.0001)  cg2d: iter=    25 ; resid.=  2.38382788065767E-04
(PID.TID 0000.0001)  cg2d: iter=    26 ; resid.=  1.98360060547437E-04
(PID.TID 0000.0001)  cg2d: iter=    27 ; resid.=  1.59556293005059E-04
(PID.TID 0000.0001)  cg2d: iter=    28 ; resid.=  1.41058645745949E-04
(PID.TID 0000.0001)  cg2d: iter=    29 ; resid.=  1.25323957007340E-04
(PID.TID 0000.0001)  cg2d: iter=    30 ; resid.=  1.08563191814689E-04
(PID.TID 0000.0001)  cg2d: iter=    31 ; resid.=  9.31835997367802E-05
(PID.TID 0000.0001)  cg2d: iter=    32 ; resid.=  7.93494518106481E-05
(PID.TID 0000.0001)  cg2d: iter=    33 ; resid.=  6.26274126273161E-05
(PID.TID 0000.0001)  cg2d: iter=    34 ; resid.=  5.13609996814138E-05
(PID.TID 0000.0001)  cg2d: iter=    35 ; resid.=  4.08512551576569E-05
(PID.TID 0000.0001)  cg2d: iter=    36 ; resid.=  2.81105814362319E-05
(PID.TID 0000.0001)  cg2d: iter=    37 ; resid.=  1.98343306679108E-05
(PID.TID 0000.0001)  cg2d: iter=    38 ; resid.=  1.64382565885081E-05
(PID.TID 0000.0001)  cg2d: iter=    39 ; resid.=  1.40402626407793E-05
(PID.TID 0000.0001)  cg2d: iter=    40 ; resid.=  1.21169760799526E-05
(PID.TID 0000.0001)  cg2d: iter=    41 ; resid.=  9.89674259220632E-06
(PID.TID 0000.0001)  cg2d: iter=    42 ; resid.=  8.49962056013486E-06
(PID.TID 0000.0001)  cg2d: iter=    43 ; resid.=  8.00103997024199E-06
(PID.TID 0000.0001)  cg2d: iter=    44 ; resid.=  8.22343330131501E-06
(PID.TID 0000.0001)  cg2d: iter=    45 ; resid.=  7.67593510767755E-06
(PID.TID 0000.0001)  cg2d: iter=    46 ; resid.=  6.56830049883801E-06
(PID.TID 0000.0001)  cg2d: iter=    47 ; resid.=  5.13754070534619E-06
(PID.TID 0000.0001)  cg2d: iter=    48 ; resid.=  3.96686169466228E-06
(PID.TID 0000.0001)  cg2d: iter=    49 ; resid.=  3.25054145307844E-06
(PID.TID 0000.0001)  cg2d: iter=    50 ; resid.=  2.58037479155916E-06
(PID.TID 0000.0001)  cg2d: iter=    51 ; resid.=  2.05967299487236E-06
(PID.TID 0000.0001)  cg2d: iter=    52 ; resid.=  1.62723353627972E-06
(PID.TID 0000.0001)  cg2d: iter=    53 ; resid.=  1.30202657520544E-06
(PID.TID 0000.0001)  cg2d: iter=    54 ; resid.=  1.05959127068755E-06
(PID.TID 0000.0001)  cg2d: iter=    55 ; resid.=  8.76978129514907E-07
(PID.TID 0000.0001)  cg2d: iter=    56 ; resid.=  6.72491829953227E-07
(PID.TID 0000.0001)  cg2d: iter=    57 ; resid.=  5.63290069698507E-07
(PID.TID 0000.0001)  cg2d: iter=    58 ; resid.=  4.50629078843844E-07
(PID.TID 0000.0001)  cg2d: iter=    59 ; resid.=  3.70185058823112E-07
(PID.TID 0000.0001)  cg2d: iter=    60 ; resid.=  2.96362101183855E-07
(PID.TID 0000.0001)  cg2d: iter=    61 ; resid.=  2.35682928225727E-07
(PID.TID 0000.0001)  cg2d: iter=    62 ; resid.=  1.76777759255826E-07
(PID.TID 0000.0001)  cg2d: iter=    63 ; resid.=  1.36750976774761E-07
(PID.TID 0000.0001)  cg2d: iter=    64 ; resid.=  1.16041963270698E-07
(PID.TID 0000.0001)  cg2d: iter=    65 ; resid.=  1.05912800546212E-07
(PID.TID 0000.0001)  cg2d: iter=    66 ; resid.=  9.16702375893755E-08
(PID.TID 0000.0001)  cg2d: iter=    67 ; resid.=  6.93792479678428E-08
(PID.TID 0000.0001)  cg2d: iter=    68 ; resid.=  5.51168624922618E-08
(PID.TID 0000.0001)  cg2d: iter=    69 ; resid.=  4.37504110943122E-08
(PID.TID 0000.0001)  cg2d: iter=    70 ; resid.=  3.78584835462917E-08
(PID.TID 0000.0001)  cg2d: iter=    71 ; resid.=  3.34560691773411E-08
(PID.TID 0000.0001)  cg2d: iter=    72 ; resid.=  2.70490824964501E-08
(PID.TID 0000.0001)  cg2d: iter=    73 ; resid.=  2.37673833947803E-08
(PID.TID 0000.0001)  cg2d: iter=    74 ; resid.=  2.03611442902726E-08
(PID.TID 0000.0001)  cg2d: iter=    75 ; resid.=  1.62636175980227E-08
(PID.TID 0000.0001)  cg2d: iter=    76 ; resid.=  1.27588498839108E-08
(PID.TID 0000.0001)  cg2d: iter=    77 ; resid.=  1.02031092454000E-08
(PID.TID 0000.0001)  cg2d: iter=    78 ; resid.=  8.22399609165051E-09
(PID.TID 0000.0001)  cg2d: iter=    79 ; resid.=  6.78147855264255E-09
(PID.TID 0000.0001)  cg2d: iter=    80 ; resid.=  5.28292037538592E-09
(PID.TID 0000.0001)  cg2d: iter=    81 ; resid.=  4.35210295793062E-09
(PID.TID 0000.0001)  cg2d: iter=    82 ; resid.=  3.67466279335113E-09
(PID.TID 0000.0001)  cg2d: iter=    83 ; resid.=  3.35078055296142E-09
(PID.TID 0000.0001)  cg2d: iter=    84 ; resid.=  2.77403209618817E-09
(PID.TID 0000.0001)  cg2d: iter=    85 ; resid.=  2.35268627994152E-09
(PID.TID 0000.0001)  cg2d: iter=    86 ; resid.=  1.88613535284989E-09
(PID.TID 0000.0001)  cg2d: iter=    87 ; resid.=  1.46051241872734E-09
(PID.TID 0000.0001)  cg2d: iter=    88 ; resid.=  1.05044060668653E-09
(PID.TID 0000.0001)  cg2d: iter=    89 ; resid.=  7.70500375224144E-10
(PID.TID 0000.0001)  cg2d: iter=    90 ; resid.=  5.70067253120034E-10
(PID.TID 0000.0001)  cg2d: iter=    91 ; resid.=  4.49980376769624E-10
(PID.TID 0000.0001)  cg2d: iter=    92 ; resid.=  3.96097830230212E-10
(PID.TID 0000.0001)  cg2d: iter=    93 ; resid.=  3.27603217797661E-10
(PID.TID 0000.0001)  cg2d: iter=    94 ; resid.=  2.82960649354404E-10
(PID.TID 0000.0001)  cg2d: iter=    95 ; resid.=  2.22651756430232E-10
(PID.TID 0000.0001)  cg2d: iter=    96 ; resid.=  1.79967440253117E-10
(PID.TID 0000.0001)  cg2d: iter=    97 ; resid.=  1.42258329856996E-10
(PID.TID 0000.0001)  cg2d: iter=    98 ; resid.=  1.14736308429873E-10
(PID.TID 0000.0001)  cg2d: iter=    99 ; resid.=  8.84794010610218E-11
(PID.TID 0000.0001)  cg2d: iter=   100 ; resid.=  6.71290048973617E-11
(PID.TID 0000.0001)  cg2d: iter=   101 ; resid.=  5.34375854067046E-11
(PID.TID 0000.0001)  cg2d: iter=   102 ; resid.=  4.53639992249835E-11
(PID.TID 0000.0001)  cg2d: iter=   103 ; resid.=  3.62224572372515E-11
(PID.TID 0000.0001)  cg2d: iter=   104 ; resid.=  2.88639721693588E-11
(PID.TID 0000.0001)  cg2d: iter=   105 ; resid.=  2.55410394447601E-11
(PID.TID 0000.0001)  cg2d: iter=   106 ; resid.=  2.16663662674992E-11
(PID.TID 0000.0001)  cg2d: iter=   107 ; resid.=  1.75228760163199E-11
(PID.TID 0000.0001)  cg2d: iter=   108 ; resid.=  1.39430854073428E-11
(PID.TID 0000.0001)  cg2d: iter=   109 ; resid.=  1.08519521128562E-11
(PID.TID 0000.0001)  cg2d: iter=   110 ; resid.=  8.33043049629375E-12
(PID.TID 0000.0001)  cg2d: iter=   111 ; resid.=  6.08899384903590E-12
(PID.TID 0000.0001)  cg2d: iter=   112 ; resid.=  4.44389706215956E-12
(PID.TID 0000.0001)  cg2d: iter=   113 ; resid.=  3.18780774905849E-12
(PID.TID 0000.0001)  cg2d: iter=   114 ; resid.=  2.34466831134871E-12
(PID.TID 0000.0001)  cg2d: iter=   115 ; resid.=  1.92929382584385E-12
(PID.TID 0000.0001)  cg2d: iter=   116 ; resid.=  1.62240349087124E-12
(PID.TID 0000.0001)  cg2d: iter=   117 ; resid.=  1.29780643555971E-12
(PID.TID 0000.0001)  cg2d: iter=   118 ; resid.=  9.75788413637762E-13
(PID.TID 0000.0001)  cg2d: iter=   119 ; resid.=  7.80772974016481E-13
(PID.TID 0000.0001)  cg2d: iter=   120 ; resid.=  6.08348638639870E-13
(PID.TID 0000.0001)  cg2d: iter=   121 ; resid.=  4.60958030044584E-13
(PID.TID 0000.0001)  cg2d: iter=   122 ; resid.=  3.17229576479270E-13
(PID.TID 0000.0001)  cg2d: iter=   123 ; resid.=  2.37619430167993E-13
(PID.TID 0000.0001)  cg2d: iter=   124 ; resid.=  1.79142952251078E-13
(PID.TID 0000.0001)  cg2d: iter=   125 ; resid.=  1.41083198499603E-13
(PID.TID 0000.0001)  cg2d: iter=   126 ; resid.=  1.14004065751482E-13
(PID.TID 0000.0001)  cg2d: iter=   127 ; resid.=  8.11944325424561E-14
DEBUG_STATS_RL:    cg2d_x (SOLVE_FOR_PRESSURE)  min= -1.84297214212390E+01
DEBUG_STATS_RL:    cg2d_x (SOLVE_FOR_PRESSURE)  max=  9.01764911038240E+00
DEBUG_STATS_RL:    cg2d_x (SOLVE_FOR_PRESSURE) mean= -1.90747858408839E+00
DEBUG_STATS_RL:    cg2d_x (SOLVE_FOR_PRESSURE) S.D.=  7.35616833199863E+00
(PID.TID 0000.0001)      cg2d_init_res =   1.55243871347107E-01
(PID.TID 0000.0001)      cg2d_iters(min,last) =      -1     127
(PID.TID 0000.0001)      cg2d_last_res =   8.11944325424561E-14
(PID.TID 0000.0001) // =======================================================
(PID.TID 0000.0001) // Begin MONITOR dynamic field statistics
(PID.TID 0000.0001) // =======================================================
(PID.TID 0000.0001) %MON time_tsnumber                =                    99
(PID.TID 0000.0001) %MON time_secondsf                =   8.5536000000000E+06
(PID.TID 0000.0001) %MON dynstat_eta_max              =   9.1923028648146E-01
(PID.TID 0000.0001) %MON dynstat_eta_min              =  -1.8786668115434E+00
(PID.TID 0000.0001) %MON dynstat_eta_mean             =  -5.8674309901703E-03
(PID.TID 0000.0001) %MON dynstat_eta_sd               =   6.4850437059110E-01
(PID.TID 0000.0001) %MON dynstat_eta_del2             =   2.5294128361184E-03
(PID.TID 0000.0001) %MON dynstat_uvel_max             =   1.3507687933725E-01
(PID.TID 0000.0001) %MON dynstat_uvel_min             =  -1.2482492311532E-01
(PID.TID 0000.0001) %MON dynstat_uvel_mean            =   2.7101808792680E-03
(PID.TID 0000.0001) %MON dynstat_uvel_sd              =   1.3772086939164E-02
(PID.TID 0000.0001) %MON dynstat_uvel_del2            =   8.3868926660624E-05
(PID.TID 0000.0001) %MON dynstat_vvel_max             =   1.2302762461282E-01
(PID.TID 0000.0001) %MON dynstat_vvel_min             =  -8.8794136063927E-02
(PID.TID 0000.0001) %MON dynstat_vvel_mean            =   5.1135056420561E-06
(PID.TID 0000.0001) %MON dynstat_vvel_sd              =   7.4559375648649E-03
(PID.TID 0000.0001) %MON dynstat_vvel_del2            =   7.2079192853236E-05
(PID.TID 0000.0001) %MON dynstat_wvel_max             =   1.4769797297725E-04
(PID.TID 0000.0001) %MON dynstat_wvel_min             =  -5.9004228849897E-05
(PID.TID 0000.0001) %MON dynstat_wvel_mean            =  -2.7823634303556E-22
(PID.TID 0000.0001) %MON dynstat_wvel_sd              =   8.7992453910273E-06
(PID.TID 0000.0001) %MON dynstat_wvel_del2            =   8.5306008357888E-08
(PID.TID 0000.0001) %MON dynstat_theta_max            =   3.1321804060115E+01
(PID.TID 0000.0001) %MON dynstat_theta_min            =  -1.9236307094128E+00
(PID.TID 0000.0001) %MON dynstat_theta_mean           =   3.6243264005906E+00
(PID.TID 0000.0001) %MON dynstat_theta_sd             =   4.4289516484796E+00
(PID.TID 0000.0001) %MON dynstat_theta_del2           =   4.7930065301765E-03
(PID.TID 0000.0001) %MON dynstat_salt_max             =   3.7477185370467E+01
(PID.TID 0000.0001) %MON dynstat_salt_min             =   2.9969374271693E+01
(PID.TID 0000.0001) %MON dynstat_salt_mean            =   3.4718007679492E+01
(PID.TID 0000.0001) %MON dynstat_salt_sd              =   2.9673422002614E-01
(PID.TID 0000.0001) %MON dynstat_salt_del2            =   9.9949716463331E-04
(PID.TID 0000.0001) %MON dynstat_sst_max              =   3.1321804060115E+01
(PID.TID 0000.0001) %MON dynstat_sst_min              =  -1.9236307094128E+00
(PID.TID 0000.0001) %MON dynstat_sst_mean             =   1.9014564590569E+01
(PID.TID 0000.0001) %MON dynstat_sst_sd               =   9.3171877586967E+00
(PID.TID 0000.0001) %MON dynstat_sst_del2             =   2.9470186712571E-02
(PID.TID 0000.0001) %MON dynstat_sss_max              =   3.7477185370467E+01
(PID.TID 0000.0001) %MON dynstat_sss_min              =   2.9969374271693E+01
(PID.TID 0000.0001) %MON dynstat_sss_mean             =   3.4834758398364E+01
(PID.TID 0000.0001) %MON dynstat_sss_sd               =   9.9456759209797E-01
(PID.TID 0000.0001) %MON dynstat_sss_del2             =   8.3740659355166E-03
(PID.TID 0000.0001) %MON forcing_qnet_max             =   1.6628729044596E+02
(PID.TID 0000.0001) %MON forcing_qnet_min             =  -1.5401167551676E+02
(PID.TID 0000.0001) %MON forcing_qnet_mean            =   1.8667718761569E+00
(PID.TID 0000.0001) %MON forcing_qnet_sd              =   4.2543345917318E+01
(PID.TID 0000.0001) %MON forcing_qnet_del2            =   7.9400470474141E-01
(PID.TID 0000.0001) %MON forcing_qsw_max              =   0.0000000000000E+00
(PID.TID 0000.0001) %MON forcing_qsw_min              =   0.0000000000000E+00
(PID.TID 0000.0001) %MON forcing_qsw_mean             =   0.0000000000000E+00
(PID.TID 0000.0001) %MON forcing_qsw_sd               =   0.0000000000000E+00
(PID.TID 0000.0001) %MON forcing_qsw_del2             =   0.0000000000000E+00
(PID.TID 0000.0001) %MON forcing_empmr_max            =   6.6896888502773E-05
(PID.TID 0000.0001) %MON forcing_empmr_min            =  -8.3605877421178E-05
(PID.TID 0000.0001) %MON forcing_empmr_mean           =   3.4467662644683E-08
(PID.TID 0000.0001) %MON forcing_empmr_sd             =   2.5512895431700E-05
(PID.TID 0000.0001) %MON forcing_empmr_del2           =   3.6941383160522E-07
(PID.TID 0000.0001) %MON forcing_fu_max               =   3.4395322799683E-01
(PID.TID 0000.0001) %MON forcing_fu_min               =  -4.1001707613468E-01
(PID.TID 0000.0001) %MON forcing_fu_mean              =   1.7531311070933E-02
(PID.TID 0000.0001) %MON forcing_fu_sd                =   1.0160162235513E-01
(PID.TID 0000.0001) %MON forcing_fu_del2              =   8.0229753052437E-04
(PID.TID 0000.0001) %MON forcing_fv_max               =   1.8109231789907E-01
(PID.TID 0000.0001) %MON forcing_fv_min               =  -1.4540471682946E-01
(PID.TID 0000.0001) %MON forcing_fv_mean              =  -6.6906119754649E-03
(PID.TID 0000.0001) %MON forcing_fv_sd                =   3.9065099338649E-02
(PID.TID 0000.0001) %MON forcing_fv_del2              =   4.2781951918176E-04
(PID.TID 0000.0001) %MON trAdv_CFL_u_max              =   4.6425953846918E-02
(PID.TID 0000.0001) %MON trAdv_CFL_v_max              =   2.3804926150724E-02
(PID.TID 0000.0001) %MON trAdv_CFL_w_max              =   3.1926207575450E-02
(PID.TID 0000.0001) %MON advcfl_uvel_max              =   4.6182030422830E-02
(PID.TID 0000.0001) %MON advcfl_vvel_max              =   2.3902294336393E-02
(PID.TID 0000.0001) %MON advcfl_wvel_max              =   3.4961931137629E-02
(PID.TID 0000.0001) %MON advcfl_W_hf_max              =   3.7532661368337E-02
(PID.TID 0000.0001) %MON pe_b_mean                    =   5.3819860115369E-04
(PID.TID 0000.0001) %MON ke_max                       =   9.9184616306541E-03
(PID.TID 0000.0001) %MON ke_mean                      =   1.1446435522921E-04
(PID.TID 0000.0001) %MON ke_vol                       =   1.3226782436723E+18
(PID.TID 0000.0001) %MON vort_r_min                   =  -3.6201186459229E-07
(PID.TID 0000.0001) %MON vort_r_max                   =   3.5904117678360E-07
(PID.TID 0000.0001) %MON vort_a_mean                  =  -2.5274807075023E-05
(PID.TID 0000.0001) %MON vort_a_sd                    =   7.3604714919128E-05
(PID.TID 0000.0001) %MON vort_p_mean                  =  -3.1845655393220E-05
(PID.TID 0000.0001) %MON vort_p_sd                    =   1.3162528577459E-04
(PID.TID 0000.0001) %MON surfExpan_theta_mean         =   5.3228237267462E-08
(PID.TID 0000.0001) %MON surfExpan_salt_mean          =   1.0709601493101E-08
(PID.TID 0000.0001) // =======================================================
(PID.TID 0000.0001) // End MONITOR dynamic field statistics
(PID.TID 0000.0001) // =======================================================
 EXTERNAL_FIELDS_LOAD,        99 : iP,iLd,i0,i1=    3    4    3    4 ; Wght=  0.2000000000  0.8000000000
 EXTERNAL_FIELDS_LOAD: (fu0,1),fu,fv= -2.7199E-02 -3.7252E-02 -3.5241E-02 -2.8288E-02
 EXTERNAL_FIELDS_LOAD: SST,SSS,Q,E-P= -8.5119E-03  3.4571E+01  1.2637E+02  8.0314E-06
DEBUG_STATS_RL:          Uvel (THERMODYNAMICS)  min= -1.24824923115323E-01
DEBUG_STATS_RL:          Uvel (THERMODYNAMICS)  max=  1.35076879337247E-01
DEBUG_STATS_RL:          Uvel (THERMODYNAMICS) mean=  6.21793963534313E-03
DEBUG_STATS_RL:          Uvel (THERMODYNAMICS) S.D.=  2.21935670340188E-02
DEBUG_STATS_RL:          Vvel (THERMODYNAMICS)  min= -8.87941360639274E-02
DEBUG_STATS_RL:          Vvel (THERMODYNAMICS)  max=  1.23027624612819E-01
DEBUG_STATS_RL:          Vvel (THERMODYNAMICS) mean=  8.44064142505472E-04
DEBUG_STATS_RL:          Vvel (THERMODYNAMICS) S.D.=  1.23019924402736E-02
DEBUG_STATS_RL:          Wvel (THERMODYNAMICS)  min= -5.90042288498973E-05
DEBUG_STATS_RL:          Wvel (THERMODYNAMICS)  max=  1.47697972977253E-04
DEBUG_STATS_RL:          Wvel (THERMODYNAMICS) mean= -2.43068890915640E-08
DEBUG_STATS_RL:          Wvel (THERMODYNAMICS) S.D.=  7.74985158458263E-06
DEBUG_STATS_RL:         Theta (THERMODYNAMICS)  min= -1.92264623558667E+00
DEBUG_STATS_RL:         Theta (THERMODYNAMICS)  max=  3.13309818543669E+01
DEBUG_STATS_RL:         Theta (THERMODYNAMICS) mean=  3.21870591814603E+00
DEBUG_STATS_RL:         Theta (THERMODYNAMICS) S.D.=  5.88842978934616E+00
DEBUG_STATS_RL:          Salt (THERMODYNAMICS)  min= -3.29597460435593E-17
DEBUG_STATS_RL:          Salt (THERMODYNAMICS)  max=  3.74781101275627E+01
DEBUG_STATS_RL:          Salt (THERMODYNAMICS) mean=  1.88446762585548E+01
DEBUG_STATS_RL:          Salt (THERMODYNAMICS) S.D.=  1.73002490322942E+01
DEBUG_STATS_RL:         GtNm1 (THERMODYNAMICS)  min= -2.48033397953977E-06
DEBUG_STATS_RL:         GtNm1 (THERMODYNAMICS)  max=  1.70825702258360E-06
DEBUG_STATS_RL:         GtNm1 (THERMODYNAMICS) mean= -3.22979485390908E-09
DEBUG_STATS_RL:         GtNm1 (THERMODYNAMICS) S.D.=  1.20811747242827E-07
DEBUG_STATS_RL:         GsNm1 (THERMODYNAMICS)  min= -2.39251333560627E-07
DEBUG_STATS_RL:         GsNm1 (THERMODYNAMICS)  max=  1.59287472288511E-07
DEBUG_STATS_RL:         GsNm1 (THERMODYNAMICS) mean= -2.06394778843491E-10
DEBUG_STATS_RL:         GsNm1 (THERMODYNAMICS) S.D.=  1.09956194042739E-08
DEBUG_STATS_RL:                EtaN (DYNAMICS)  min= -1.87866681154342E+00
DEBUG_STATS_RL:                EtaN (DYNAMICS)  max=  9.19230286481463E-01
DEBUG_STATS_RL:                EtaN (DYNAMICS) mean= -1.94442261374964E-01
DEBUG_STATS_RL:                EtaN (DYNAMICS) S.D.=  7.49864254026361E-01
DEBUG_STATS_RL:                Uvel (DYNAMICS)  min= -1.24824923115323E-01
DEBUG_STATS_RL:                Uvel (DYNAMICS)  max=  1.35076879337247E-01
DEBUG_STATS_RL:                Uvel (DYNAMICS) mean=  6.21793963534313E-03
DEBUG_STATS_RL:                Uvel (DYNAMICS) S.D.=  2.21935670340188E-02
DEBUG_STATS_RL:                Vvel (DYNAMICS)  min= -8.87941360639274E-02
DEBUG_STATS_RL:                Vvel (DYNAMICS)  max=  1.23027624612819E-01
DEBUG_STATS_RL:                Vvel (DYNAMICS) mean=  8.44064142505472E-04
DEBUG_STATS_RL:                Vvel (DYNAMICS) S.D.=  1.23019924402736E-02
DEBUG_STATS_RL:                Wvel (DYNAMICS)  min= -5.90042288498973E-05
DEBUG_STATS_RL:                Wvel (DYNAMICS)  max=  1.47697972977253E-04
DEBUG_STATS_RL:                Wvel (DYNAMICS) mean= -2.43068890915640E-08
DEBUG_STATS_RL:                Wvel (DYNAMICS) S.D.=  7.74985158458263E-06
DEBUG_STATS_RL:               Theta (DYNAMICS)  min= -1.92264623558667E+00
DEBUG_STATS_RL:               Theta (DYNAMICS)  max=  3.13309818543669E+01
DEBUG_STATS_RL:               Theta (DYNAMICS) mean=  3.21870591814603E+00
DEBUG_STATS_RL:               Theta (DYNAMICS) S.D.=  5.88842978934616E+00
DEBUG_STATS_RL:                Salt (DYNAMICS)  min= -3.29597460435593E-17
DEBUG_STATS_RL:                Salt (DYNAMICS)  max=  3.74781101275627E+01
DEBUG_STATS_RL:                Salt (DYNAMICS) mean=  1.88446762585548E+01
DEBUG_STATS_RL:                Salt (DYNAMICS) S.D.=  1.73002490322942E+01
DEBUG_STATS_RL:                  Gu (DYNAMICS)  min= -1.23785123589237E-01
DEBUG_STATS_RL:                  Gu (DYNAMICS)  max=  1.39086192071578E-01
DEBUG_STATS_RL:                  Gu (DYNAMICS) mean=  6.19259918353450E-03
DEBUG_STATS_RL:                  Gu (DYNAMICS) S.D.=  2.26455145595030E-02
DEBUG_STATS_RL:                  Gv (DYNAMICS)  min= -8.61020106424759E-02
DEBUG_STATS_RL:                  Gv (DYNAMICS)  max=  1.22333511756255E-01
DEBUG_STATS_RL:                  Gv (DYNAMICS) mean=  3.51811473007406E-03
DEBUG_STATS_RL:                  Gv (DYNAMICS) S.D.=  1.39337382526111E-02
DEBUG_STATS_RL:               GuNm1 (DYNAMICS)  min= -9.22475657807349E-06
DEBUG_STATS_RL:               GuNm1 (DYNAMICS)  max=  1.03659598021432E-05
DEBUG_STATS_RL:               GuNm1 (DYNAMICS) mean=  1.63308186422419E-08
DEBUG_STATS_RL:               GuNm1 (DYNAMICS) S.D.=  1.23220725625050E-06
DEBUG_STATS_RL:               GvNm1 (DYNAMICS)  min= -9.38588351975013E-06
DEBUG_STATS_RL:               GvNm1 (DYNAMICS)  max=  1.49678080657195E-05
DEBUG_STATS_RL:               GvNm1 (DYNAMICS) mean=  7.40190304447944E-07
DEBUG_STATS_RL:               GvNm1 (DYNAMICS) S.D.=  2.59731031432125E-06
DEBUG_STATS_RL:               GtNm1 (DYNAMICS)  min= -2.48033397953977E-06
DEBUG_STATS_RL:               GtNm1 (DYNAMICS)  max=  1.70825702258360E-06
DEBUG_STATS_RL:               GtNm1 (DYNAMICS) mean= -3.22979485390908E-09
DEBUG_STATS_RL:               GtNm1 (DYNAMICS) S.D.=  1.20811747242827E-07
DEBUG_STATS_RL:               GsNm1 (DYNAMICS)  min= -2.39251333560627E-07
DEBUG_STATS_RL:               GsNm1 (DYNAMICS)  max=  1.59287472288511E-07
DEBUG_STATS_RL:               GsNm1 (DYNAMICS) mean= -2.06394778843491E-10
DEBUG_STATS_RL:               GsNm1 (DYNAMICS) S.D.=  1.09956194042739E-08
DEBUG_STATS_RL:    cg2d_b (SOLVE_FOR_PRESSURE)  min= -2.90329528111833E+04
DEBUG_STATS_RL:    cg2d_b (SOLVE_FOR_PRESSURE)  max=  3.02472904328181E+04
DEBUG_STATS_RL:    cg2d_b (SOLVE_FOR_PRESSURE) mean=  5.62446765850475E+00
DEBUG_STATS_RL:    cg2d_b (SOLVE_FOR_PRESSURE) S.D.=  4.01939553449165E+03
 cg2d: Sum(rhs),rhsMax =   4.30473025620614E-01  1.98672302050061E+00
(PID.TID 0000.0001)  cg2d: iter=     1 ; resid.=  4.02207361601890E-02
(PID.TID 0000.0001)  cg2d: iter=     2 ; resid.=  1.88209909957405E-02
(PID.TID 0000.0001)  cg2d: iter=     3 ; resid.=  1.12587197616960E-02
(PID.TID 0000.0001)  cg2d: iter=     4 ; resid.=  8.63793387144891E-03
(PID.TID 0000.0001)  cg2d: iter=     5 ; resid.=  7.49763722814592E-03
(PID.TID 0000.0001)  cg2d: iter=     6 ; resid.=  6.75012802568950E-03
(PID.TID 0000.0001)  cg2d: iter=     7 ; resid.=  5.52559022825910E-03
(PID.TID 0000.0001)  cg2d: iter=     8 ; resid.=  4.62670368348334E-03
(PID.TID 0000.0001)  cg2d: iter=     9 ; resid.=  3.95131209927890E-03
(PID.TID 0000.0001)  cg2d: iter=    10 ; resid.=  3.55019849255130E-03
(PID.TID 0000.0001)  cg2d: iter=    11 ; resid.=  3.29050218846800E-03
(PID.TID 0000.0001)  cg2d: iter=    12 ; resid.=  2.85031744113504E-03
(PID.TID 0000.0001)  cg2d: iter=    13 ; resid.=  2.52687415399898E-03
(PID.TID 0000.0001)  cg2d: iter=    14 ; resid.=  2.13176976290279E-03
(PID.TID 0000.0001)  cg2d: iter=    15 ; resid.=  1.75783488848990E-03
(PID.TID 0000.0001)  cg2d: iter=    16 ; resid.=  1.38335622833275E-03
(PID.TID 0000.0001)  cg2d: iter=    17 ; resid.=  1.07224113819607E-03
(PID.TID 0000.0001)  cg2d: iter=    18 ; resid.=  8.48675225746581E-04
(PID.TID 0000.0001)  cg2d: iter=    19 ; resid.=  7.09183268292934E-04
(PID.TID 0000.0001)  cg2d: iter=    20 ; resid.=  6.01758401853756E-04
(PID.TID 0000.0001)  cg2d: iter=    21 ; resid.=  4.99931092858351E-04
(PID.TID 0000.0001)  cg2d: iter=    22 ; resid.=  4.19453381214480E-04
(PID.TID 0000.0001)  cg2d: iter=    23 ; resid.=  3.16732132341807E-04
(PID.TID 0000.0001)  cg2d: iter=    24 ; resid.=  2.44760086492542E-04
(PID.TID 0000.0001)  cg2d: iter=    25 ; resid.=  2.09906964376290E-04
(PID.TID 0000.0001)  cg2d: iter=    26 ; resid.=  1.70452426059276E-04
(PID.TID 0000.0001)  cg2d: iter=    27 ; resid.=  1.30710343395438E-04
(PID.TID 0000.0001)  cg2d: iter=    28 ; resid.=  1.10426525806885E-04
(PID.TID 0000.0001)  cg2d: iter=    29 ; resid.=  9.52457960516961E-05
(PID.TID 0000.0001)  cg2d: iter=    30 ; resid.=  8.17477659301109E-05
(PID.TID 0000.0001)  cg2d: iter=    31 ; resid.=  7.07525287987676E-05
(PID.TID 0000.0001)  cg2d: iter=    32 ; resid.=  6.10200316000926E-05
(PID.TID 0000.0001)  cg2d: iter=    33 ; resid.=  4.99736696171510E-05
(PID.TID 0000.0001)  cg2d: iter=    34 ; resid.=  4.26830729452889E-05
(PID.TID 0000.0001)  cg2d: iter=    35 ; resid.=  3.57226817091537E-05
(PID.TID 0000.0001)  cg2d: iter=    36 ; resid.=  2.58759250726971E-05
(PID.TID 0000.0001)  cg2d: iter=    37 ; resid.=  1.88588759791924E-05
(PID.TID 0000.0001)  cg2d: iter=    38 ; resid.=  1.59428289001870E-05
(PID.TID 0000.0001)  cg2d: iter=    39 ; resid.=  1.36889507448235E-05
(PID.TID 0000.0001)  cg2d: iter=    40 ; resid.=  1.18107796000854E-05
(PID.TID 0000.0001)  cg2d: iter=    41 ; resid.=  9.54147725737317E-06
(PID.TID 0000.0001)  cg2d: iter=    42 ; resid.=  8.12456142579299E-06
(PID.TID 0000.0001)  cg2d: iter=    43 ; resid.=  7.50244584192246E-06
(PID.TID 0000.0001)  cg2d: iter=    44 ; resid.=  7.71077931286935E-06
(PID.TID 0000.0001)  cg2d: iter=    45 ; resid.=  7.12905544906813E-06
(PID.TID 0000.0001)  cg2d: iter=    46 ; resid.=  5.94887027820067E-06
(PID.TID 0000.0001)  cg2d: iter=    47 ; resid.=  4.46086901694796E-06
(PID.TID 0000.0001)  cg2d: iter=    48 ; resid.=  3.32364144008174E-06
(PID.TID 0000.0001)  cg2d: iter=    49 ; resid.=  2.67255610732201E-06
(PID.TID 0000.0001)  cg2d: iter=    50 ; resid.=  2.12685843766825E-06
(PID.TID 0000.0001)  cg2d: iter=    51 ; resid.=  1.77055100341766E-06
(PID.TID 0000.0001)  cg2d: iter=    52 ; resid.=  1.47766405123943E-06
(PID.TID 0000.0001)  cg2d: iter=    53 ; resid.=  1.28088122200267E-06
(PID.TID 0000.0001)  cg2d: iter=    54 ; resid.=  1.11085144912923E-06
(PID.TID 0000.0001)  cg2d: iter=    55 ; resid.=  9.71693497586903E-07
(PID.TID 0000.0001)  cg2d: iter=    56 ; resid.=  7.83428036775015E-07
(PID.TID 0000.0001)  cg2d: iter=    57 ; resid.=  6.86237431212813E-07
(PID.TID 0000.0001)  cg2d: iter=    58 ; resid.=  5.62645794688527E-07
(PID.TID 0000.0001)  cg2d: iter=    59 ; resid.=  4.57810485959532E-07
(PID.TID 0000.0001)  cg2d: iter=    60 ; resid.=  3.52884335178777E-07
(PID.TID 0000.0001)  cg2d: iter=    61 ; resid.=  2.64942941595745E-07
(PID.TID 0000.0001)  cg2d: iter=    62 ; resid.=  1.86411271171470E-07
(PID.TID 0000.0001)  cg2d: iter=    63 ; resid.=  1.35652699288772E-07
(PID.TID 0000.0001)  cg2d: iter=    64 ; resid.=  1.08029890759887E-07
(PID.TID 0000.0001)  cg2d: iter=    65 ; resid.=  9.42269421090037E-08
(PID.TID 0000.0001)  cg2d: iter=    66 ; resid.=  8.05513873248614E-08
(PID.TID 0000.0001)  cg2d: iter=    67 ; resid.=  5.90454779995315E-08
(PID.TID 0000.0001)  cg2d: iter=    68 ; resid.=  4.40282987354366E-08
(PID.TID 0000.0001)  cg2d: iter=    69 ; resid.=  3.23615774984649E-08
(PID.TID 0000.0001)  cg2d: iter=    70 ; resid.=  2.55492976134506E-08
(PID.TID 0000.0001)  cg2d: iter=    71 ; resid.=  2.11016707476534E-08
(PID.TID 0000.0001)  cg2d: iter=    72 ; resid.=  1.62790379663503E-08
(PID.TID 0000.0001)  cg2d: iter=    73 ; resid.=  1.36202921252918E-08
(PID.TID 0000.0001)  cg2d: iter=    74 ; resid.=  1.16588519530635E-08
(PID.TID 0000.0001)  cg2d: iter=    75 ; resid.=  9.36857073585069E-09
(PID.TID 0000.0001)  cg2d: iter=    76 ; resid.=  7.45590061659882E-09
(PID.TID 0000.0001)  cg2d: iter=    77 ; resid.=  6.01439635430312E-09
(PID.TID 0000.0001)  cg2d: iter=    78 ; resid.=  4.83242471410625E-09
(PID.TID 0000.0001)  cg2d: iter=    79 ; resid.=  3.97147422305734E-09
(PID.TID 0000.0001)  cg2d: iter=    80 ; resid.=  3.11658614930088E-09
(PID.TID 0000.0001)  cg2d: iter=    81 ; resid.=  2.53776298405388E-09
(PID.TID 0000.0001)  cg2d: iter=    82 ; resid.=  2.09919291901775E-09
(PID.TID 0000.0001)  cg2d: iter=    83 ; resid.=  1.95110003586818E-09
(PID.TID 0000.0001)  cg2d: iter=    84 ; resid.=  1.70316647712306E-09
(PID.TID 0000.0001)  cg2d: iter=    85 ; resid.=  1.54943585594525E-09
(PID.TID 0000.0001)  cg2d: iter=    86 ; resid.=  1.37716849443027E-09
(PID.TID 0000.0001)  cg2d: iter=    87 ; resid.=  1.16655265162173E-09
(PID.TID 0000.0001)  cg2d: iter=    88 ; resid.=  8.99654074713222E-10
(PID.TID 0000.0001)  cg2d: iter=    89 ; resid.=  6.77620290857822E-10
(PID.TID 0000.0001)  cg2d: iter=    90 ; resid.=  4.91398562719451E-10
(PID.TID 0000.0001)  cg2d: iter=    91 ; resid.=  3.59658917686665E-10
(PID.TID 0000.0001)  cg2d: iter=    92 ; resid.=  2.82701718784559E-10
(PID.TID 0000.0001)  cg2d: iter=    93 ; resid.=  2.17494588445762E-10
(PID.TID 0000.0001)  cg2d: iter=    94 ; resid.=  1.79542157621058E-10
(PID.TID 0000.0001)  cg2d: iter=    95 ; resid.=  1.35351801285601E-10
(PID.TID 0000.0001)  cg2d: iter=    96 ; resid.=  1.05564816715190E-10
(PID.TID 0000.0001)  cg2d: iter=    97 ; resid.=  7.96359823781746E-11
(PID.TID 0000.0001)  cg2d: iter=    98 ; resid.=  6.17082981883764E-11
(PID.TID 0000.0001)  cg2d: iter=    99 ; resid.=  4.76552856757196E-11
(PID.TID 0000.0001)  cg2d: iter=   100 ; resid.=  3.44862034832720E-11
(PID.TID 0000.0001)  cg2d: iter=   101 ; resid.=  2.57105763176400E-11
(PID.TID 0000.0001)  cg2d: iter=   102 ; resid.=  2.03292877603887E-11
(PID.TID 0000.0001)  cg2d: iter=   103 ; resid.=  1.49121548008587E-11
(PID.TID 0000.0001)  cg2d: iter=   104 ; resid.=  1.05610784989088E-11
(PID.TID 0000.0001)  cg2d: iter=   105 ; resid.=  7.90875650659939E-12
(PID.TID 0000.0001)  cg2d: iter=   106 ; resid.=  6.15618195572207E-12
(PID.TID 0000.0001)  cg2d: iter=   107 ; resid.=  4.75363811018361E-12
(PID.TID 0000.0001)  cg2d: iter=   108 ; resid.=  3.75047852772360E-12
(PID.TID 0000.0001)  cg2d: iter=   109 ; resid.=  3.08013866876243E-12
(PID.TID 0000.0001)  cg2d: iter=   110 ; resid.=  2.75352193142784E-12
(PID.TID 0000.0001)  cg2d: iter=   111 ; resid.=  2.49661271508902E-12
(PID.TID 0000.0001)  cg2d: iter=   112 ; resid.=  2.14195728347297E-12
(PID.TID 0000.0001)  cg2d: iter=   113 ; resid.=  1.70341076184398E-12
(PID.TID 0000.0001)  cg2d: iter=   114 ; resid.=  1.27725976592294E-12
(PID.TID 0000.0001)  cg2d: iter=   115 ; resid.=  1.02703694370554E-12
(PID.TID 0000.0001)  cg2d: iter=   116 ; resid.=  8.54803351816412E-13
(PID.TID 0000.0001)  cg2d: iter=   117 ; resid.=  7.06048353565370E-13
(PID.TID 0000.0001)  cg2d: iter=   118 ; resid.=  5.37181836601386E-13
(PID.TID 0000.0001)  cg2d: iter=   119 ; resid.=  4.19585804641036E-13
(PID.TID 0000.0001)  cg2d: iter=   120 ; resid.=  3.31224877580725E-13
(PID.TID 0000.0001)  cg2d: iter=   121 ; resid.=  2.67241563283897E-13
(PID.TID 0000.0001)  cg2d: iter=   122 ; resid.=  1.91491782050053E-13
(PID.TID 0000.0001)  cg2d: iter=   123 ; resid.=  1.45723735725662E-13
(PID.TID 0000.0001)  cg2d: iter=   124 ; resid.=  1.14570582629256E-13
(PID.TID 0000.0001)  cg2d: iter=   125 ; resid.=  9.72479560046950E-14
DEBUG_STATS_RL:    cg2d_x (SOLVE_FOR_PRESSURE)  min= -1.84514349734749E+01
DEBUG_STATS_RL:    cg2d_x (SOLVE_FOR_PRESSURE)  max=  8.98614529568700E+00
DEBUG_STATS_RL:    cg2d_x (SOLVE_FOR_PRESSURE) mean= -1.90754986870878E+00
DEBUG_STATS_RL:    cg2d_x (SOLVE_FOR_PRESSURE) S.D.=  7.35705028065774E+00
(PID.TID 0000.0001)      cg2d_init_res =   1.53472536903770E-01
(PID.TID 0000.0001)      cg2d_iters(min,last) =      -1     125
(PID.TID 0000.0001)      cg2d_last_res =   9.72479560046950E-14
(PID.TID 0000.0001) // =======================================================
(PID.TID 0000.0001) // Begin MONITOR dynamic field statistics
(PID.TID 0000.0001) // =======================================================
(PID.TID 0000.0001) %MON time_tsnumber                =                   100
(PID.TID 0000.0001) %MON time_secondsf                =   8.6400000000000E+06
(PID.TID 0000.0001) %MON dynstat_eta_max              =   9.1601888844923E-01
(PID.TID 0000.0001) %MON dynstat_eta_min              =  -1.8808802215570E+00
(PID.TID 0000.0001) %MON dynstat_eta_mean             =  -5.8684345906835E-03
(PID.TID 0000.0001) %MON dynstat_eta_sd               =   6.4858216341568E-01
(PID.TID 0000.0001) %MON dynstat_eta_del2             =   2.5324592413603E-03
(PID.TID 0000.0001) %MON dynstat_uvel_max             =   1.3643360402154E-01
(PID.TID 0000.0001) %MON dynstat_uvel_min             =  -1.2358120245948E-01
(PID.TID 0000.0001) %MON dynstat_uvel_mean            =   2.7081204487266E-03
(PID.TID 0000.0001) %MON dynstat_uvel_sd              =   1.3789574574294E-02
(PID.TID 0000.0001) %MON dynstat_uvel_del2            =   8.3992704880454E-05
(PID.TID 0000.0001) %MON dynstat_vvel_max             =   1.2322980948326E-01
(PID.TID 0000.0001) %MON dynstat_vvel_min             =  -8.9151125555971E-02
(PID.TID 0000.0001) %MON dynstat_vvel_mean            =   4.5432905934755E-06
(PID.TID 0000.0001) %MON dynstat_vvel_sd              =   7.4395395001858E-03
(PID.TID 0000.0001) %MON dynstat_vvel_del2            =   7.1830066737511E-05
(PID.TID 0000.0001) %MON dynstat_wvel_max             =   1.5069981277901E-04
(PID.TID 0000.0001) %MON dynstat_wvel_min             =  -5.9580049136952E-05
(PID.TID 0000.0001) %MON dynstat_wvel_mean            =  -1.0395586873772E-22
(PID.TID 0000.0001) %MON dynstat_wvel_sd              =   8.8158657573272E-06
(PID.TID 0000.0001) %MON dynstat_wvel_del2            =   8.5129649289228E-08
(PID.TID 0000.0001) %MON dynstat_theta_max            =   3.1330981854367E+01
(PID.TID 0000.0001) %MON dynstat_theta_min            =  -1.9226462355867E+00
(PID.TID 0000.0001) %MON dynstat_theta_mean           =   3.6243120029101E+00
(PID.TID 0000.0001) %MON dynstat_theta_sd             =   4.4289344025948E+00
(PID.TID 0000.0001) %MON dynstat_theta_del2           =   4.7909911607451E-03
(PID.TID 0000.0001) %MON dynstat_salt_max             =   3.7478110127563E+01
(PID.TID 0000.0001) %MON dynstat_salt_min             =   2.9972311279239E+01
(PID.TID 0000.0001) %MON dynstat_salt_mean            =   3.4718007688807E+01
(PID.TID 0000.0001) %MON dynstat_salt_sd              =   2.9674254441484E-01
(PID.TID 0000.0001) %MON dynstat_salt_del2            =   9.9937792528067E-04
(PID.TID 0000.0001) %MON dynstat_sst_max              =   3.1330981854367E+01
(PID.TID 0000.0001) %MON dynstat_sst_min              =  -1.9226462355867E+00
(PID.TID 0000.0001) %MON dynstat_sst_mean             =   1.9009962914996E+01
(PID.TID 0000.0001) %MON dynstat_sst_sd               =   9.3244980731470E+00
(PID.TID 0000.0001) %MON dynstat_sst_del2             =   2.9477445482652E-02
(PID.TID 0000.0001) %MON dynstat_sss_max              =   3.7478110127563E+01
(PID.TID 0000.0001) %MON dynstat_sss_min              =   2.9972311279239E+01
(PID.TID 0000.0001) %MON dynstat_sss_mean             =   3.4834507850835E+01
(PID.TID 0000.0001) %MON dynstat_sss_sd               =   9.9498083811139E-01
(PID.TID 0000.0001) %MON dynstat_sss_del2             =   8.3764556168870E-03
(PID.TID 0000.0001) %MON forcing_qnet_max             =   1.6158205566406E+02
(PID.TID 0000.0001) %MON forcing_qnet_min             =  -1.5358367919922E+02
(PID.TID 0000.0001) %MON forcing_qnet_mean            =   2.2638083051266E+00
(PID.TID 0000.0001) %MON forcing_qnet_sd              =   4.3251861816584E+01
(PID.TID 0000.0001) %MON forcing_qnet_del2            =   7.9754295620117E-01
(PID.TID 0000.0001) %MON forcing_qsw_max              =   0.0000000000000E+00
(PID.TID 0000.0001) %MON forcing_qsw_min              =   0.0000000000000E+00
(PID.TID 0000.0001) %MON forcing_qsw_mean             =   0.0000000000000E+00
(PID.TID 0000.0001) %MON forcing_qsw_sd               =   0.0000000000000E+00
(PID.TID 0000.0001) %MON forcing_qsw_del2             =   0.0000000000000E+00
(PID.TID 0000.0001) %MON forcing_empmr_max            =   6.6800717490878E-05
(PID.TID 0000.0001) %MON forcing_empmr_min            =  -8.3620723501099E-05
(PID.TID 0000.0001) %MON forcing_empmr_mean           =   1.2022297817123E-08
(PID.TID 0000.0001) %MON forcing_empmr_sd             =   2.5522928542606E-05
(PID.TID 0000.0001) %MON forcing_empmr_del2           =   3.7041876953226E-07
(PID.TID 0000.0001) %MON forcing_fu_max               =   3.4346117377281E-01
(PID.TID 0000.0001) %MON forcing_fu_min               =  -4.1095014810562E-01
(PID.TID 0000.0001) %MON forcing_fu_mean              =   1.7404118974000E-02
(PID.TID 0000.0001) %MON forcing_fu_sd                =   1.0186347478370E-01
(PID.TID 0000.0001) %MON forcing_fu_del2              =   8.0856311401579E-04
(PID.TID 0000.0001) %MON forcing_fv_max               =   1.8099631667137E-01
(PID.TID 0000.0001) %MON forcing_fv_min               =  -1.4571011960506E-01
(PID.TID 0000.0001) %MON forcing_fv_mean              =  -6.6541353030919E-03
(PID.TID 0000.0001) %MON forcing_fv_sd                =   3.9225413743387E-02
(PID.TID 0000.0001) %MON forcing_fv_del2              =   4.3233394206160E-04
(PID.TID 0000.0001) %MON trAdv_CFL_u_max              =   4.6191410323508E-02
(PID.TID 0000.0001) %MON trAdv_CFL_v_max              =   2.3863449418392E-02
(PID.TID 0000.0001) %MON trAdv_CFL_w_max              =   3.2720781705730E-02
(PID.TID 0000.0001) %MON advcfl_uvel_max              =   4.5770967064251E-02
(PID.TID 0000.0001) %MON advcfl_vvel_max              =   2.3941575614064E-02
(PID.TID 0000.0001) %MON advcfl_wvel_max              =   3.5672503627690E-02
(PID.TID 0000.0001) %MON advcfl_W_hf_max              =   3.8295481835608E-02
(PID.TID 0000.0001) %MON pe_b_mean                    =   5.3832773508772E-04
(PID.TID 0000.0001) %MON ke_max                       =   1.0048091069485E-02
(PID.TID 0000.0001) %MON ke_mean                      =   1.1456859766211E-04
(PID.TID 0000.0001) %MON ke_vol                       =   1.3226782436723E+18
(PID.TID 0000.0001) %MON vort_r_min                   =  -3.6462369082843E-07
(PID.TID 0000.0001) %MON vort_r_max                   =   3.5947305336767E-07
(PID.TID 0000.0001) %MON vort_a_mean                  =  -2.5274807085613E-05
(PID.TID 0000.0001) %MON vort_a_sd                    =   7.3604713817888E-05
(PID.TID 0000.0001) %MON vort_p_mean                  =  -3.1845655406564E-05
(PID.TID 0000.0001) %MON vort_p_sd                    =   1.3162531003086E-04
(PID.TID 0000.0001) %MON surfExpan_theta_mean         =   4.5208008564389E-08
(PID.TID 0000.0001) %MON surfExpan_salt_mean          =   1.2967817168657E-08
(PID.TID 0000.0001) // =======================================================
(PID.TID 0000.0001) // End MONITOR dynamic field statistics
(PID.TID 0000.0001) // =======================================================
(PID.TID 0000.0001) // =======================================================
(PID.TID 0000.0001) // Field Current uVel   at iteration        100
(PID.TID 0000.0001) // CMIN =         -1.235812024594799E-01
(PID.TID 0000.0001) // CMAX =          1.364336040215420E-01
(PID.TID 0000.0001) // CINT =          9.630178017815625E-03
(PID.TID 0000.0001) // SYMBOLS (CMIN->CMAX): -abcdefghijklmnopqrstuvwxyz+
(PID.TID 0000.0001) //                  0.0: .
(PID.TID 0000.0001) // RANGE I (Lo:Hi:Step):(     1:    90:     1)
(PID.TID 0000.0001) // RANGE J (Lo:Hi:Step):(    40:     1:    -1)
(PID.TID 0000.0001) // RANGE K (Lo:Hi:Step):(   1:   1:   1)
(PID.TID 0000.0001) // =======================================================
(PID.TID 0000.0001) K =   1
(PID.TID 0000.0001)                I=10      I=20      I=30      I=40      I=50      I=60      I=70      I=80      I=90
(PID.TID 0000.0001) |--J--|123456789|123456789|123456789|123456789|123456789|123456789|123456789|123456789|123456789|
(PID.TID 0000.0001)     40 mmmll..llllmmmmmmmm...................................................................llll
(PID.TID 0000.0001)     39 mmnmmmmmmmmmmm....m......................................................mmm.........kkkkl
(PID.TID 0000.0001)     38 mnnnnmmmmmmmm............................................................mmmm.......kkklmm
(PID.TID 0000.0001)     37 nnn...................................................................m....ll....klkl..mnn
(PID.TID 0000.0001)     36 on..........................................llm.....................mmmmmmmlkl..kllmmmnnno
(PID.TID 0000.0001)     35 nm..................................mmm...mlllmm....lllm............mm.....mllmkknoooooppn
(PID.TID 0000.0001)     34 ....................................mmm..mmmmmmm..mkkmmnm...................nonooppqqqpn..
(PID.TID 0000.0001)     33 .....................................nmmmnopoooonnnnnooonmm..................pppqrrqponlk.
(PID.TID 0000.0001)     32 .....................................mnooppqqppooooooppoonm.................pppopponmlllm.
(PID.TID 0000.0001)     31 .....................................opqqqqppooooopppppponm...............ossqqqponmlklm..
(PID.TID 0000.0001)     30 ....................................suutttssrqqqrrqqqqqponl.............prttttsrqqonmmmn..
(PID.TID 0000.0001)     29 ..................................quwwwvvvvutsrrrrqqppponmmm............tttsrqpoooonmmmm..
(PID.TID 0000.0001)     28 ................................prtsrqqrqqppoooonnnnnmmlllllm..........rrpommlllmmmmmlmm..
(PID.TID 0000.0001)     27 ...............m...............rtqpnmmmnnnmlllllllmnnmmlllkkkl....mmn..pnmmllllmmmmmml....
(PID.TID 0000.0001)     26 ...............no............lnqqnlkkkmnnnmlllkklllmmllkkjjijkll..mmnnoonmmmnmmmlllkjj....
(PID.TID 0000.0001)     25 ...............pom....nn....lijjmiggfgiiihhhghhhhhhihgggggghjkmmm....llkjjkkkjiijjiggh....
(PID.TID 0000.0001)     24 .............nrsqol..ooo....mm..mkhgfffffggggghhiiihgghijkklmmmmmmml..lkkjklllllmmmmmm....
(PID.TID 0000.0001)     23 .............psrpnm..mmn....nn...jjijiiijkkkllmmnnlllmoqrrrrqpommnnmm.....mnnonnoprrqp....
(PID.TID 0000.0001)     22 o............llhhgfghgil....m..oggihihhhhhggiiiijjijkmprtsrrqpomllllkl.......mjggimpqpqppp
(PID.TID 0000.0001)     21 ppo.........jihfdb-bcehkj......ohjlkihhhgfeefeeeffffhhkmnmmllmnnnmllkk.........eaafkmkorqq
(PID.TID 0000.0001)     20 lml........lklmlkifghjlnl.........onnmllkkkkkjihhhgghghjiggghiklkjiiij..........hcdghgikkl
(PID.TID 0000.0001)     19 jll........kjjmmlkjkkkmmmnm....il......oooopoonmllkkkjkkihiihhiihhhhhj............jiihjjii
(PID.TID 0000.0001)     18 jlm........lfdggfhhiihjkkjijjighk....lmlmmmnmmlkkjjjjijjiijjjjjjjijjjjj...........lkkkkkii
(PID.TID 0000.0001)     17 ijk..........gdcdcdffffhiihiiij......jkjjjjkkjjjiihhhhhgfggggghhhhiiiii..........mkihhhggh
(PID.TID 0000.0001)     16 def.......o..miheeghhihhikllkl........lkklkkkkklllkkkkihhgghggggghhhhggj.........nligfeeee
(PID.TID 0000.0001)     15 gffi.....mn..nmlkklmmmllmnnml..........mmnmmmmmnooonnmllkjjkkjjjjjiihgfhk.......kmlkjihhgg
(PID.TID 0000.0001)     14 iihj.....lkkkkllllmmmllklmmmn..........mlmmmmnnnnooonnmmmmmlllllkkkkkjijk......jkkkjjjiiii
(PID.TID 0000.0001)     13 kkih.....mmlkkkkllmnmklllmllm..........nmnnoooonnooonooopppooonnmmmmmmllm.....klmmmlllllll
(PID.TID 0000.0001)     12 pomjjkjjlpqqqpnnnnooooooonmmmmmmml.....opppopppooppooppqqrrrrrqpoppoonmm......npqqqqqqqqqq
(PID.TID 0000.0001)     11 rqpoomlnquvvwvtrqqrqqqqqqpoppoooonm...mnoon..opoonnnooooooppqpppppppoonl.....mpstttttssrrs
(PID.TID 0000.0001)     10 srqqqrsttvxyxxxvvvwvtssssrrqqqqpponm..nnonn..oommmmmmnnnmmnoooooppoooonn...oooqsttuuvutttt
(PID.TID 0000.0001)      9 vvuuuvvvuuuuuuvvuuwxwvvvvvuutttsssrqppppoo..ppoooooooooppppppppqqppoooon..oppqssttuvwxwwww
(PID.TID 0000.0001)      8 wxyyxwwvvvtttuutsqqtwxxxxxxxwwwwxxyyxxwvtrrsrrrrstttttttuuuutttttsrrqqpo..nooqrssuvwwwxxxw
(PID.TID 0000.0001)      7 tuvvuttuuutttssssrqqstttuuuuvvwwxyz++zzzzyxvttttuvvxxyyyxxxwvvvvvuuttttutssrsssrrssstttuut
(PID.TID 0000.0001)      6 qqppppqqrrsrqqqqrrrpooppqqqrsttuuvvvvvvwyzyxvuuuuvwwyyzzyxwvvvvvuuuvvvvvxxwxxvtrqqppppqqrq
(PID.TID 0000.0001)      5 nnmmmmnnoooonnnnoooonnnnmmnnoppqqqqqqqrstuuvuuuuuvvuutttttttttttttttttuuutsstrpoonnnnnooon
(PID.TID 0000.0001)      4 lkkkkklllllmmlllmmmmmmllllllmmmmmmnnnnnnnoopqrrrrqqponnnoppqqqqqqqqqqqqpon...mmmmlllllllll
(PID.TID 0000.0001)      3 kkkkkkklll.............................llllllmmmmmlllklllmmnnnnnnnnmmmmmm...lllllllllllkll
(PID.TID 0000.0001)      2 ...........................................lllllllllkkkkllllllmm...lll......mlllllllmml...
(PID.TID 0000.0001)      1 ..........................................................................................
(PID.TID 0000.0001) // =======================================================
(PID.TID 0000.0001) // END OF FIELD                                          =
(PID.TID 0000.0001) // =======================================================
(PID.TID 0000.0001) 
(PID.TID 0000.0001) // =======================================================
(PID.TID 0000.0001) // Field Current vVel   at iteration        100
(PID.TID 0000.0001) // CMIN =         -8.185834858851208E-02
(PID.TID 0000.0001) // CMAX =          1.232298094832621E-01
(PID.TID 0000.0001) // CINT =          7.595857706362008E-03
(PID.TID 0000.0001) // SYMBOLS (CMIN->CMAX): -abcdefghijklmnopqrstuvwxyz+
(PID.TID 0000.0001) //                  0.0: .
(PID.TID 0000.0001) // RANGE I (Lo:Hi:Step):(     1:    90:     1)
(PID.TID 0000.0001) // RANGE J (Lo:Hi:Step):(    40:     1:    -1)
(PID.TID 0000.0001) // RANGE K (Lo:Hi:Step):(   1:   1:   1)
(PID.TID 0000.0001) // =======================================================
(PID.TID 0000.0001) K =   1
(PID.TID 0000.0001)                I=10      I=20      I=30      I=40      I=50      I=60      I=70      I=80      I=90
(PID.TID 0000.0001) |--J--|123456789|123456789|123456789|123456789|123456789|123456789|123456789|123456789|123456789|
(PID.TID 0000.0001)     40 jkoom.jkkkkkkk...kk..................................................................jjiji
(PID.TID 0000.0001)     39 jklmmkkkkkkkl...........................................................jjkk........hiijkj
(PID.TID 0000.0001)     38 kmm.......................................................................kij......ig.llkj
(PID.TID 0000.0001)     37 ln...................................................................kk...jjj...fjnmk.kljj
(PID.TID 0000.0001)     36 ll.........................................llll....................kkk....iiii.eekmlkkjllk
(PID.TID 0000.0001)     35 ...................................kkkk..kkklllk...ghlmm...................hihhhjlllllno..
(PID.TID 0000.0001)     34 ....................................kkk.jihiiijj.hhhijlml...................igijlnoonlmn..
(PID.TID 0000.0001)     33 ....................................jiiiiihhhihhhggghijjjkk.................ngkmnnonmlkmm.
(PID.TID 0000.0001)     32 ....................................kjiijjjiihgfgfffggghhij................qmgjkkkjjjijl..
(PID.TID 0000.0001)     31 ....................................mjhhhiiihhfeeeeeeffgggi..............kljhgggggggggik..
(PID.TID 0000.0001)     30 ...................................onihghihghiihhhghhiiihff............opkkigggeefefggik..
(PID.TID 0000.0001)     29 .................................ooomkjjlmlklmnmmllmmmlkjhfg...........qqlkjiihhhggghhjk..
(PID.TID 0000.0001)     28 ...............................pqpomllllnonmmnoooonnonmlkjihi.........momkjkkjjjjiiiii....
(PID.TID 0000.0001)     27 ..............jj..............rronnnmnnnonmmnnnoppoooonnmllkji...klmm.lljjijjjjlmlllkj....
(PID.TID 0000.0001)     26 ..............kkl...........jlprnmnoopqqqpopqqqrrqpopqpponmmkjjj....nmlllkjklmnoommlki....
(PID.TID 0000.0001)     25 ..............mllm...mlk...hgk.qkjmopqrrqpppqqqrrqonnnmmmlllllkji....llmmkjjjjkkkjiiij....
(PID.TID 0000.0001)     24 ............mpqrpoo.nonk...jik..hglooppqppooooopppomkkkjklllmmlkijjl.....ljjjjlnnmlllk....
(PID.TID 0000.0001)     23 ............uyxxtqp.mpok...mm...dhortssrrsttttuuvwwtsssstttsrqpnmmnnk.......psvxyywtpj....
(PID.TID 0000.0001)     22 i...........vyyvqnmijmpn......jfgmtwyzyvtstuuvuuuuusrrrrssqqponllmnljg........rwy+yvroljjj
(PID.TID 0000.0001)     21 ikk........noppmkiihgijje......c.mortuvspoooooononmlkkkkkkkjhggggijjih.........oqvtqnkjjii
(PID.TID 0000.0001)     20 gkl.......mnomjgghhjjkifd......-......ssqqqpoooonljjjhhhgeedcbacdddfgg...........snigedddd
(PID.TID 0000.0001)     19 gik.......pqvtponllmmnmkjmn...ghk.....prrrsrrrrpnmlmmlkkighhgedccbcegj...........qokheccdf
(PID.TID 0000.0001)     18 kjk.......o.vwqomnklljkkjjiihgf.....kkmkkkmmllkkjjjklmllkkklllkjhggikml..........oqnmlkjkk
(PID.TID 0000.0001)     17 mml.......n.lojhihgfeeggfeeefg.......ihffghihhggghhhijjjijklkkkjihiknnk.........ikmllmlkkm
(PID.TID 0000.0001)     16 iij......jm.jjiihfgheefhgfedg.........geefhhiiihiiiijkjiijkkjjkjhhhikmlj........hklkklkiii
(PID.TID 0000.0001)     15 ijkj....jjm.iijihhjljghjkjieg.........hfghhhikjjjjjjkkkjjjkkkllkiiiijklkk......ghlmllmllkj
(PID.TID 0000.0001)     14 klnl....ghkgefggffikkhilnmlih.........geghhghjjjihihhhihhijjklkjjijkkkmmk.....eegijiijjklk
(PID.TID 0000.0001)     13 mmnn....cgkhefiihhijihimonmml.........gehiihhiiiihhhghhhhhiikkjjkkkllmnn.....fdghijhijjlmm
(PID.TID 0000.0001)     12 poomnkhgfjnnklnnmmnonmnpqqppnlkkll....hhjkj.ijjkkkjjjjjkkklllkkmoommmnom.....hikklmlmnnopq
(PID.TID 0000.0001)     11 qpppmkkkloqromnopppqqqrrrrrqonnnmnm..jjkklk.kllkmllllllmnnnnmkknpqonnnnm....kknonmnnnopqrr
(PID.TID 0000.0001)     10 ooopomllostspnmnqqnmnpqqpppponmlllnn.kjlkk..ookkllllllllnnonlkkmpponnmml..oonoqpommmllnpqp
(PID.TID 0000.0001)      9 mmnppnlknqrrqpnmswokmoppoonnnmkjkjlonlklll.rqolllmmlmmmlmnonlkkmoonnnmjj.orqqrsqonnmllnqqo
(PID.TID 0000.0001)      8 ooonnmlmnoprrpnlpxwpooopoonnmllkkkmppljjkntvrpoooonnnnnonnnnmllnooonnmih.rssuvurpoonmmoprr
(PID.TID 0000.0001)      7 qqommmmnnopqponmlqwuqononnmmmmmmmmoqomkjkorssrqqqrqpponnnmmnmmnnooonnnmmpsrtwvtrqponnnopqr
(PID.TID 0000.0001)      6 onmllmmnnnnnnmlllmoponmmlkkklmmmmlnonmmmmnoopqqrrrrrqomlkkkmnnnnooonnnoprrrtrpponnonmnoooo
(PID.TID 0000.0001)      5 kkkkkkkkkjjjjiiijkkkkjjhhiiijjiiijjklllllmlllnpqqqqpomlkjjkmnnmmnnnnmmnnnn..ljmmllllllllll
(PID.TID 0000.0001)      4 gfghhgffgh............................jjjjjjkkmnnnmmlkkkkkkkllkkkllllkjkj...kkkkkkkkkjiihh
(PID.TID 0000.0001)      3 ..........................................jjjjjjjjjjjiiiiiiiiiii..kjij.....klljjjjjjjii...
(PID.TID 0000.0001)      2 ..........................................................................................
(PID.TID 0000.0001)      1 ..........................................................................................
(PID.TID 0000.0001) // =======================================================
(PID.TID 0000.0001) // END OF FIELD                                          =
(PID.TID 0000.0001) // =======================================================
(PID.TID 0000.0001) 
(PID.TID 0000.0001) // =======================================================
(PID.TID 0000.0001) // Field Current theta  at iteration        100
(PID.TID 0000.0001) // CMIN =         -1.922646235586666E+00
(PID.TID 0000.0001) // CMAX =          3.133098185436688E+01
(PID.TID 0000.0001) // CINT =          1.231615855183465E+00
(PID.TID 0000.0001) // SYMBOLS (CMIN->CMAX): -abcdefghijklmnopqrstuvwxyz+
(PID.TID 0000.0001) //                  0.0: .
(PID.TID 0000.0001) // RANGE I (Lo:Hi:Step):(     1:    90:     1)
(PID.TID 0000.0001) // RANGE J (Lo:Hi:Step):(    40:     1:    -1)
(PID.TID 0000.0001) // RANGE K (Lo:Hi:Step):(   1:   1:   1)
(PID.TID 0000.0001) // =======================================================
(PID.TID 0000.0001) K =   1
(PID.TID 0000.0001)                I=10      I=20      I=30      I=40      I=50      I=60      I=70      I=80      I=90
(PID.TID 0000.0001) |--J--|123456789|123456789|123456789|123456789|123456789|123456789|123456789|123456789|123456789|
(PID.TID 0000.0001)     40 -abccb--------abcddbbbbbbbbbbbbbbbbbbbbbbbbbbbbbbbbbbbbbbbbbbbbbbbbbbbbbbbbbbbbbbbbbbaa---
(PID.TID 0000.0001)     39 bbccccbaa-----bbbddbbbbbbbbbbbbbbbbbbbbbbbbbbbbbbbbbbbbbbbbbbbbbbbbbbbbb----bbbbbbbbaa--aa
(PID.TID 0000.0001)     38 deeeeecbcbaa-bbbbbbbbbbbbbbbbbbbbbbbbbbbbbbbbbbbbbbbbbbbbbbbbbbbbbbbbbbb-----bbbbbba--abcc
(PID.TID 0000.0001)     37 efgbbbbbbbbbbbbbbbbbbbbbbbbbbbbbbbbbbbbbbbbbbbbbbbbbbbbbbbbbbbbbbbbbbbbbbb--abbbbbeedbcdde
(PID.TID 0000.0001)     36 ggbbbbbbbbbbbbbbbbbbbbbbbbbbbbbbbbbbbbbbbbbba--bbbbbbbbbbbbbbbbbbbbccbbbaaaaacbceffghhhggg
(PID.TID 0000.0001)     35 ffbbbbbbbbbbbbbbbbbbbbbbbbbbbbbbbbb----bbabcccb-bbbddeefbbbbbbbbbbbbbbbbbbbcddddeffhhiiihg
(PID.TID 0000.0001)     34 bbbbbbbbbbbbbbbbbbbbbbbbbbbbbbbbbbb----bacccccccbccddefffbbbbbbbbbbbbbbbbbbcabdefgghiiiibb
(PID.TID 0000.0001)     33 bbbbbbbbbbbbbbbbbbbbbbbbbbbbbbbbbbbb--abbccdddddeeeeefffgghbbbbbbbbbbbbbbbbbbacfhijjjjjjjb
(PID.TID 0000.0001)     32 bbbbbbbbbbbbbbbbbbbbbbbbbbbbbbbbbbbb-abbccddddeefffgggghhhibbbbbbbbbbbbbbbbeeb-hjklllkkkjb
(PID.TID 0000.0001)     31 bbbbbbbbbbbbbbbbbbbbbbbbbbbbbbbbbbbbdeefgggghhhhhhhhiijjjjjbbbbbbbbbbbbbbhillgilmmmmmllmbb
(PID.TID 0000.0001)     30 bbbbbbbbbbbbbbbbbbbbbbbbbbbbbbbbbbbkkjjjjkkkkkkkkkkkllmmmllbbbbbbbbbbbbmmmnooooooooonnnnbb
(PID.TID 0000.0001)     29 bbbbbbbbbbbbbbbbbbbbbbbbbbbbbbbbbnnnnnmmmnnmnnnnnnnnnooonmmmbbbbbbbbbbbnpqpppppppppooooobb
(PID.TID 0000.0001)     28 bbbbbbbbbbbbbbbbbbbbbbbbbbbbbbbmooppppooppppppppppppqqqpponnnbbbbbbbbbqrrrqqrqqqqqppppppbb
(PID.TID 0000.0001)     27 bbbbbbbbbbbbbbtubbbbbbbbbbbbbbqqrrrrrrrrrssrrsrrsssrrrrqqppoopbbbrrrsbstttsstssssrrrqqbbbb
(PID.TID 0000.0001)     26 bbbbbbbbbbbbbbuutbbbbbbbbbbbtstttttuuuuuuuutttttttttsssrrqqppqsubttuvuuuuuuuutttssrrqqbbbb
(PID.TID 0000.0001)     25 bbbbbbbbbbbbbbuvvvbbbwwwbbbuuvvvvvvwwwwvvvvuuuuuuuuutttssrrrrstvwbbbvvvvvuuuuuuttsrqqqbbbb
(PID.TID 0000.0001)     24 bbbbbbbbbbbbwvvwxxybwwxxbbbwwwbwwwwwwwwwwwvvvvvvvvuuvvvvvvvvvvvwwvwwbwvvvuuuuuuuttttttbbbb
(PID.TID 0000.0001)     23 bbbbbbbbbbbbwwxxyyzbwxyybbbxwwbbwxxxxxxxxwwwwwwwwwwwwwwwwwwxxwwwwwwxwbbbbvvvvvvvvvvwwwbbbb
(PID.TID 0000.0001)     22 vbbbbbbbbbbbwwwxxyyxxxyzbbbxxbzyxxyyyyyyyyxxxxxxxxxxwxwwwwwwwwwwwwwvvvbbbbbbwwwwwxxxxyyyxw
(PID.TID 0000.0001)     21 vvwbbbbbbbbxxxxxxxxxxyyzzbbbbbzyzzzzzzzzzzyyyyyyyyyyyyxxxxxxxxxxxxwvvvbbbbbbbbyxxxxyyyyyxw
(PID.TID 0000.0001)     20 vwvbbbbbbbyyyyyxyyyyyzyz+bbbbbbzbzzzzz+zz++zzzzzzzzyyyyxxxxxxxxxxxwwvvbbbbbbbbbyyyxxxxxwww
(PID.TID 0000.0001)     19 vvwbbbbbbbzzzyyyyzyzzzzyzzybbb+zzbbbbbz+z+++zzzzzzzzyyyxxxxxwwwvvwvvvvbbbbbbbbbbbxxwwwvvvv
(PID.TID 0000.0001)     18 uuubbbbbbbzzxxxyxyyyyyyyyyzzzz+zzbbb++zzzzzzzzzzzzzyyyyxxxxxwwwvvvvvuutbbbbbbbbbbyxxwwvvwv
(PID.TID 0000.0001)     17 uutbbbbbbbzbywwxxwwxxxxxxyyyyzzbbbbbyyyyzzzzzzzyyyyyyxxxxxxwwwvvuvvuttvbbbbbbbbbxxxxwvuvvv
(PID.TID 0000.0001)     16 tssbbbbbbyzbxxwwwwwwwwwwwwxxyybbbbbbbxxxyyyyyyyyyyyyyxxxwxxxwwwvvvvuttstbbbbbbbbxxxxxwvvut
(PID.TID 0000.0001)     15 srrrbbbbwxxbvwwwwvvvvvvvuuvvwbbbbbbbbbvwwwwxxwxxxxxxxxxxxxxxwwvvvvuutsssrbbbbbbwxxxxxwwvut
(PID.TID 0000.0001)     14 tsqqbbbbvwvvvwvvvvvvututtsttubbbbbbbbbuvvvvwvvvvwwwwwwwwwwwwwwvvvvuutrrsrbbbbbvwwwwwxwwwvu
(PID.TID 0000.0001)     13 ttspbbbbvwvvvvuuuvvuuuttsssrsbbbbbbbbbtuuuuvuuuuuuuuvvvvvvwwwvvuuuuutsrspbbbbuuwwvvvwvvvuu
(PID.TID 0000.0001)     12 sssrssqrtutttutssssssttrrrrrqppqrqbbbbsttttttttssssstsssstuuutttssssssrrbbbbbtuvvuttuutsss
(PID.TID 0000.0001)     11 ppooppqrrrrqqrrqqppopqqppppooppqqpqbbrrssrsbqrrqqrrrrrrrqrrrqqqqqqqrrrqpbbbboprssrrrrrrqqp
(PID.TID 0000.0001)     10 mmlklmnoooooooommlmmmmmllllllmnnoooobpqqqqqbopqpqqpppppppppoooooonnooooobbnpooooooonnooonm
(PID.TID 0000.0001)      9 ijiiiijjjjijkkjjjiijjjiiihiiiijkkmmmlmnnopbnmnnoooonnnnnnnmlllmmlllllmmlblmmmmlllllkkkkkji
(PID.TID 0000.0001)      8 fffgggghhggghiiihgghhhhgggghhhhiijjjjjklllmlkllllkkllllkkkkjjjjjjjjjjjlkbjkkjjjiiihhhhhggf
(PID.TID 0000.0001)      7 eedeeefffgfffggggfefffeeeeffgggggghgghhijjjiiijjkjiiihiihhiiihhhhhhhiiijiiiihhhggfffffeeee
(PID.TID 0000.0001)      6 cccddeeeeeeeeeeeeeeeeeeeeeeedddeeeeeffggghgghgghhhhgfffffggffffffgggggggggggggffeedddddddc
(PID.TID 0000.0001)      5 ccdddddddddddddddddddddddcdddddeeeedddeeeeefffeeeeedddeeeeeedddeeeeeeeeeeeeddeddddcccccccc
(PID.TID 0000.0001)      4 ccccccccccccccbbbbccccbbbbbbcccccbbbbcccccccccccbcccccccccccccccccccccccdcbbbaabbbcccccccc
(PID.TID 0000.0001)      3 bccbbbaaaabbbbbbbbbbbbbbbbbbbbbbbbbbbbbbaaaaabbbbbbbbbbbaaaaaaaaaaaaabbbbbbaaaaaabbbbbbbbb
(PID.TID 0000.0001)      2 bbbbbbbbbbbbbbbbbbbbbbbbbbbbbbbbbbbbbbbbbbaaaabbbbbbaaaaaaaaaaaabbaaaabbbbbaaaaaaaabbbabbb
(PID.TID 0000.0001)      1 bbbbbbbbbbbbbbbbbbbbbbbbbbbbbbbbbbbbbbbbbbbbbbbbbbbbbbbbbbbbbbbbbbbbbbbbbbbbbbbbbbbbbbbbbb
(PID.TID 0000.0001) // =======================================================
(PID.TID 0000.0001) // END OF FIELD                                          =
(PID.TID 0000.0001) // =======================================================
(PID.TID 0000.0001) 
(PID.TID 0000.0001) // =======================================================
(PID.TID 0000.0001) // Field Current etaN   at iteration        100
(PID.TID 0000.0001) // CMIN =         -1.880880221557037E+00
(PID.TID 0000.0001) // CMAX =          9.160188884492276E-01
(PID.TID 0000.0001) // CINT =          1.035888559261580E-01
(PID.TID 0000.0001) // SYMBOLS (CMIN->CMAX): -abcdefghijklmnopqrstuvwxyz+
(PID.TID 0000.0001) //                  0.0: .
(PID.TID 0000.0001) // RANGE I (Lo:Hi:Step):(    -1:    92:     1)
(PID.TID 0000.0001) // RANGE J (Lo:Hi:Step):(    42:    -1:    -1)
(PID.TID 0000.0001) // RANGE K (Lo:Hi:Step):(   1:   1:   1)
(PID.TID 0000.0001) // =======================================================
(PID.TID 0000.0001) K =   1
(PID.TID 0000.0001)                I=8       I=18      I=28      I=38      I=48      I=58      I=68      I=78      I=88
(PID.TID 0000.0001) |--J--|101234567|901234567|901234567|901234567|901234567|901234567|901234567|901234567|901234567|9012
(PID.TID 0000.0001)     42 ............................................aaaabbbbcccccccccccccc..dddd.....-aaaaaaaaaaa.....
(PID.TID 0000.0001)     41 ..............................................................................................
(PID.TID 0000.0001)     40 jjjjjkk.llllllkkkkkkk..................................................................jkkjjjj
(PID.TID 0000.0001)     39 jjjjjjkkkkkkkkkk...ll.....................................................iiii........kkkjjjjj
(PID.TID 0000.0001)     38 jjkkkklkkkkkkkk...........................................................jjjjj......ljjjjjjkk
(PID.TID 0000.0001)     37 kkkkm..................................................................kk...kji...jkjkj.jkkkkk
(PID.TID 0000.0001)     36 kklm.........................................qqqq....................llklkkjijji.lihijjkkkkklm
(PID.TID 0000.0001)     35 mmmm.................................pppp..pqppqqq...trrrs...........lll....jihhhhhiijjjkkmmmm
(PID.TID 0000.0001)     34 .....................................pppp.qqpppqpq.qqqqqqrs..................jjihhhijjkllo....
(PID.TID 0000.0001)     33 m.....................................ppppppppppqqqqqqqqqrrst.................ljijjkklmmmlm...
(PID.TID 0000.0001)     32 n.....................................qqppppqqqqrrrrrrrrrssss................hnlkllmnnnnmmn...
(PID.TID 0000.0001)     31 ......................................pqqqqqrrrsssssssssttttt..............lmmnmmnnnnnnnmn....
(PID.TID 0000.0001)     30 .....................................qrssssstssttttttttuuuutt............knnoppppppppooono....
(PID.TID 0000.0001)     29 ...................................tuuvvvvvvvvvuvvvvvuuvvvvuts...........mpqrrrqqqqqpooooo....
(PID.TID 0000.0001)     28 .................................tvwxxyxxxxxxwwwwwwwvvvvvvvuutt.........pqrrrrrrqqqqppoooo....
(PID.TID 0000.0001)     27 ................ss..............vwxyyyyyyyyyyxxxxwwwwwwwvvvuuutt...srrr.rsssrrrqqqqppoon......
(PID.TID 0000.0001)     26 ................sss...........zyyzzzzzzzzzzzyyyxxxxxxwwwwvvuuutttu.sssttsstsssrrqqqpppoo......
(PID.TID 0000.0001)     25 ................sstt...vvv...zyyxzzzzzzzzzzzzyyxxxxxxwwwwvvvuuuuuuv...stttttssrrqqqqppoo......
(PID.TID 0000.0001)     24 ..............ttttuuu.vvvv...zyy.+zzyyyzzzyyyyyxxxxxwwwwwvvvvvvvvvvvuu.tsssssssrrqqqqppp......
(PID.TID 0000.0001)     23 ..............tuuuuvv.vvvv...zzy..+yyyyyyyyyyyyxxxxxxwwwwwwvwvvvvvvvvvv....ssssrrrrqqqqr......
(PID.TID 0000.0001)     22 rrq...........uuuuuuuuuuuv...zz.+yzyyyyyyyyyxxxxxxxxxxxwwwwwwvvvvvuuuuuu......srrrrrrrrrrrrrq.
(PID.TID 0000.0001)     21 rqqqr........vuuttttttuuuuv.....zzzzyyyyyxxxxxxxxxxxxxwwwwwvvvvvuuuuuuuu........ssrrrrrrrrrqqq
(PID.TID 0000.0001)     20 qqqqq.......vvvutttttuuuuuv......y.zyyxxxxxxxxxxxxxxxwwwwvvvvuuuuuuuuuuu.........ssrrrqqqqqqqq
(PID.TID 0000.0001)     19 qpqqq.......wvvuutuuuuuvvvvvv...xxx.....yyyyyyyyxxxxxxwwwvvvvuuuuuuuuttt...........srrqqqqqpqq
(PID.TID 0000.0001)     18 qppqq.......wwwuuuuuuvvvvvvvvvvwwxx...zzyyyyyyyyyyyxxxxwwwwwvvvuuuuuuuttt..........tsrrqqqqppq
(PID.TID 0000.0001)     17 qpppp.......x.yvvuuvvvvvvvvvvvvww.....zyyyyyyyyyyyyxxxxwwwwwwvvvvuuuuuutu.........utssrqqqqppp
(PID.TID 0000.0001)     16 qqppp......yx.xwvvvvvvvvvvuuuvvv.......yxxxyyyyyyyyxxxxxxxwwwwwwvvvvuuuttt........ttsssrrqqqpp
(PID.TID 0000.0001)     15 rrqppp....wxw.wwwwwvwvuvvvuutuv.........xxxxxxyxxxxxxxxxxxxxxxwwwvvvvuuttss......rtttttsssrrqp
(PID.TID 0000.0001)     14 srrqpo....vwvuvvvvvvvvuuuuttsst.........wwwwxxxwwwxxxxxxxxxxxxxxwwvvvvuuuts.....rsttttutttsrrq
(PID.TID 0000.0001)     13 tssrqp....uwwvvvuuuuvuuuuutssrr.........uwwwwwwvvvvvvvvwwwwwxxxxwwwvvvuuuts....prsttttuuuutssr
(PID.TID 0000.0001)     12 tssrrqqnqruwvvvvvuuuutuuuutsssrrrssr....tvvvuuuuuuuuuuuvvvvvvwwwwwwvuuuuts.....qrssttttttttssr
(PID.TID 0000.0001)     11 srrqqqqqsstuuutuutttuttttttssrrrsssss..stuutt.tttttttuuuuuuuvvuvvwvuuuutts....opqqrrrssssssrrq
(PID.TID 0000.0001)     10 ppooooooppqqppopqqqqqrrrrrrrqqqqqrrssr.rtttut.sssttttuuuuuuuuuuuvvutssssst..qooponnooppqqqppoo
(PID.TID 0000.0001)      9 lllllllllmmmkkkkklljklmnnnnnnooopqqrsrrrrsss.tsqrsttttttuuuutstttttsrrrrrr.oonnmlkkkkklmmmllll
(PID.TID 0000.0001)      8 gfgghhggghiiiihhhikhfhiijijjjkkllmnoppppqrsstqqpqqrrrsssssssrrrrrsrqqqqqru.qomlkihggggghhhgfgg
(PID.TID 0000.0001)      7 dcccbbcdeeeffeeeffgifeddeeefffghhiijkjjjkmopponnnnonnnooooooonnooooooooppqqonnkigfeddddddddccc
(PID.TID 0000.0001)      6 baa--aabbbccccccddeeedccccccddeeeeeffeefghijkkkkkkkkjjiiiiijjkkkkkkkkklllllkjigfdccbbbbbbbbaa-
(PID.TID 0000.0001)      5 ------aaabbabbbbbcccccbbbaabbbbbbbccccccdddeefggggffedcccddfgggggghgggggggfedcaaaaaaaaaaa-----
(PID.TID 0000.0001)      4 -----aaaaabbbbbbbbbbbbbbbbbbbbbbbbbbbbbbbbbbbcccccbbbaabbbccdddddeeeedddddde..-aaa------------
(PID.TID 0000.0001)      3 aaabbbbbbbbb............................aaaaaabbbbbbaaabbbbbbccccccdddddded..aa--aaaaaaaaaaaab
(PID.TID 0000.0001)      2 ............................................aaaabbbbcccccccccccccc..dddd.....-aaaaaaaaaaa.....
(PID.TID 0000.0001)      1 ..............................................................................................
(PID.TID 0000.0001)      0 jjjjjkk.llllllkkkkkkk..................................................................jkkjjjj
(PID.TID 0000.0001)     -1 jjjjjjkkkkkkkkkk...ll.....................................................iiii........kkkjjjjj
(PID.TID 0000.0001) // =======================================================
(PID.TID 0000.0001) // END OF FIELD                                          =
(PID.TID 0000.0001) // =======================================================
(PID.TID 0000.0001) 
(PID.TID 0000.0001)  MDS_WRITE_FIELD: it,rec,kS,kL,kH=     100     1  15   1  15 file=U.0000000100
(PID.TID 0000.0001)  MDS_WRITE_FIELD: it,rec,kS,kL,kH=     100     1  15   1  15 file=V.0000000100
(PID.TID 0000.0001)  MDS_WRITE_FIELD: it,rec,kS,kL,kH=     100     1  15   1  15 file=T.0000000100
(PID.TID 0000.0001)  MDS_WRITE_FIELD: it,rec,kS,kL,kH=     100     1  15   1  15 file=S.0000000100
(PID.TID 0000.0001)  MDS_WRITE_FIELD: it,rec,kS,kL,kH=     100     1   1   1   1 file=Eta.0000000100
(PID.TID 0000.0001)  MDS_WRITE_FIELD: it,rec,kS,kL,kH=     100     1  15   1  15 file=W.0000000100
(PID.TID 0000.0001)  MDS_WRITE_FIELD: it,rec,kS,kL,kH=     100     1  15   1  15 file=PH.0000000100
(PID.TID 0000.0001)  MDS_WRITE_FIELD: it,rec,kS,kL,kH=     100     1   1   1   1 file=PHL.0000000100
(PID.TID 0000.0001)  MDS_WRITE_FIELD: it,rec,kS,kL,kH=     100     1   1   1   1 file=ETAtave.0000000100
(PID.TID 0000.0001)  MDS_WRITE_FIELD: it,rec,kS,kL,kH=     100     1  15   1  15 file=Ttave.0000000100
(PID.TID 0000.0001)  MDS_WRITE_FIELD: it,rec,kS,kL,kH=     100     1  15   1  15 file=Stave.0000000100
(PID.TID 0000.0001)  MDS_WRITE_FIELD: it,rec,kS,kL,kH=     100     1  15   1  15 file=uVeltave.0000000100
(PID.TID 0000.0001)  MDS_WRITE_FIELD: it,rec,kS,kL,kH=     100     1  15   1  15 file=vVeltave.0000000100
(PID.TID 0000.0001)  MDS_WRITE_FIELD: it,rec,kS,kL,kH=     100     1  15   1  15 file=wVeltave.0000000100
(PID.TID 0000.0001)  MDS_WRITE_FIELD: it,rec,kS,kL,kH=     100     1   1   1   1 file=Eta2tave.0000000100
(PID.TID 0000.0001)  MDS_WRITE_FIELD: it,rec,kS,kL,kH=     100     1  15   1  15 file=UTtave.0000000100
(PID.TID 0000.0001)  MDS_WRITE_FIELD: it,rec,kS,kL,kH=     100     1  15   1  15 file=VTtave.0000000100
(PID.TID 0000.0001)  MDS_WRITE_FIELD: it,rec,kS,kL,kH=     100     1  15   1  15 file=WTtave.0000000100
(PID.TID 0000.0001)  MDS_WRITE_FIELD: it,rec,kS,kL,kH=     100     1  15   1  15 file=UStave.0000000100
(PID.TID 0000.0001)  MDS_WRITE_FIELD: it,rec,kS,kL,kH=     100     1  15   1  15 file=VStave.0000000100
(PID.TID 0000.0001)  MDS_WRITE_FIELD: it,rec,kS,kL,kH=     100     1  15   1  15 file=WStave.0000000100
(PID.TID 0000.0001)  MDS_WRITE_FIELD: it,rec,kS,kL,kH=     100     1  15   1  15 file=TTtave.0000000100
(PID.TID 0000.0001)  MDS_WRITE_FIELD: it,rec,kS,kL,kH=     100     1  15   1  15 file=UUtave.0000000100
(PID.TID 0000.0001)  MDS_WRITE_FIELD: it,rec,kS,kL,kH=     100     1  15   1  15 file=VVtave.0000000100
(PID.TID 0000.0001)  MDS_WRITE_FIELD: it,rec,kS,kL,kH=     100     1  15   1  15 file=UVtave.0000000100
(PID.TID 0000.0001)  MDS_WRITE_FIELD: it,rec,kS,kL,kH=     100     1  15   1  15 file=Tdiftave.0000000100
(PID.TID 0000.0001)  MDS_WRITE_FIELD: it,rec,kS,kL,kH=     100     1  15   1  15 file=PhHytave.0000000100
(PID.TID 0000.0001)  MDS_WRITE_FIELD: it,rec,kS,kL,kH=     100     1   1   1   1 file=PHLtave.0000000100
(PID.TID 0000.0001)  MDS_WRITE_FIELD: it,rec,kS,kL,kH=     100     1   1   1   1 file=uFluxtave.0000000100
(PID.TID 0000.0001)  MDS_WRITE_FIELD: it,rec,kS,kL,kH=     100     1   1   1   1 file=vFluxtave.0000000100
(PID.TID 0000.0001)  MDS_WRITE_FIELD: it,rec,kS,kL,kH=     100     1   1   1   1 file=tFluxtave.0000000100
(PID.TID 0000.0001)  MDS_WRITE_FIELD: it,rec,kS,kL,kH=     100     1   1   1   1 file=sFluxtave.0000000100
(PID.TID 0000.0001)  MDS_WRITE_FIELD: it,rec,kS,kL,kH=     100     1   1   1   1 file=PHL2tave.0000000100
(PID.TID 0000.0001)  MDS_WRITE_FIELD: it,rec,kS,kL,kH=     100     1  15   1  15 file=Convtave.0000000100
(PID.TID 0000.0001) // Time-average data written, t-step       100
(PID.TID 0000.0001) 
(PID.TID 0000.0001)  MDS_WRITE_FIELD: it,rec,kS,kL,kH=     100     1  15   1  15 file=GM_Kwx-T.0000000100
(PID.TID 0000.0001)  MDS_WRITE_FIELD: it,rec,kS,kL,kH=     100     1  15   1  15 file=GM_Kwy-T.0000000100
(PID.TID 0000.0001)  MDS_WRITE_FIELD: it,rec,kS,kL,kH=     100     1  15   1  15 file=GM_Kwz-T.0000000100
(PID.TID 0000.0001)  MDS_WRITE_FIELD: it,rec,kS,kL,kH=     100     1  15   1  15 file=pickup_cd.0000000100
(PID.TID 0000.0001)  MDS_WRITE_FIELD: it,rec,kS,kL,kH=     100     2  15   1  15 file=pickup_cd.0000000100
(PID.TID 0000.0001)  MDS_WRITE_FIELD: it,rec,kS,kL,kH=     100     3  15   1  15 file=pickup_cd.0000000100
(PID.TID 0000.0001)  MDS_WRITE_FIELD: it,rec,kS,kL,kH=     100     4  15   1  15 file=pickup_cd.0000000100
(PID.TID 0000.0001)  MDS_WRITE_FIELD: it,rec,kS,kL,kH=     100    61   1   1   1 file=pickup_cd.0000000100
(PID.TID 0000.0001)  MDS_WRITE_FIELD: it,rec,kS,kL,kH=     100    -1  15   1  15 file=pickup.0000000100
(PID.TID 0000.0001)  MDS_WRITE_FIELD: it,rec,kS,kL,kH=     100    -2  15   1  15 file=pickup.0000000100
(PID.TID 0000.0001)  MDS_WRITE_FIELD: it,rec,kS,kL,kH=     100    -3  15   1  15 file=pickup.0000000100
(PID.TID 0000.0001)  MDS_WRITE_FIELD: it,rec,kS,kL,kH=     100    -4  15   1  15 file=pickup.0000000100
(PID.TID 0000.0001)  MDS_WRITE_FIELD: it,rec,kS,kL,kH=     100    -5  15   1  15 file=pickup.0000000100
(PID.TID 0000.0001)  MDS_WRITE_FIELD: it,rec,kS,kL,kH=     100    -6  15   1  15 file=pickup.0000000100
(PID.TID 0000.0001)  MDS_WRITE_FIELD: it,rec,kS,kL,kH=     100    -7  15   1  15 file=pickup.0000000100
(PID.TID 0000.0001)  MDS_WRITE_FIELD: it,rec,kS,kL,kH=     100    -8  15   1  15 file=pickup.0000000100
(PID.TID 0000.0001)  MDS_WRITE_FIELD: it,rec,kS,kL,kH=     100  -121   1   1   1 file=pickup.0000000100
(PID.TID 0000.0001)  MDS_WRITE_FIELD: it,rec,kS,kL,kH=     100  -122   1   1   1 file=pickup.0000000100
(PID.TID 0000.0001)  MDS_WRITE_FIELD: it,rec,kS,kL,kH=     100  -123   1   1   1 file=pickup.0000000100
(PID.TID 0000.0001) %CHECKPOINT       100 0000000100
(PID.TID 0000.0001)  MDS_WRITE_FIELD: it,rec,kS,kL,kH=     100     1   1   1   1 file=ETAN_forecast.0000000100
(PID.TID 0000.0001)  MDS_WRITE_FIELD: it,rec,kS,kL,kH=     100     1  15   1  15 file=THETA_forecast.0000000100
(PID.TID 0000.0001)  MDS_WRITE_FIELD: it,rec,kS,kL,kH=     100     1  15   1  15 file=SALT_forecast.0000000100
(PID.TID 0000.0001)  MDS_WRITE_FIELD: it,rec,kS,kL,kH=     100     1  15   1  15 file=UVEL_forecast.0000000100
(PID.TID 0000.0001)  MDS_WRITE_FIELD: it,rec,kS,kL,kH=     100     1  15   1  15 file=VVEL_forecast.0000000100
(PID.TID 0000.0001)  MDS_WRITE_FIELD: it,rec,kS,kL,kH=     100     1   1   1   1 file=ETAN_analysis.0000000100
(PID.TID 0000.0001)  MDS_WRITE_FIELD: it,rec,kS,kL,kH=     100     1  15   1  15 file=THETA_analysis.0000000100
(PID.TID 0000.0001)  MDS_WRITE_FIELD: it,rec,kS,kL,kH=     100     1  15   1  15 file=SALT_analysis.0000000100
(PID.TID 0000.0001)  MDS_WRITE_FIELD: it,rec,kS,kL,kH=     100     1  15   1  15 file=UVEL_analysis.0000000100
(PID.TID 0000.0001)  MDS_WRITE_FIELD: it,rec,kS,kL,kH=     100     1  15   1  15 file=VVEL_analysis.0000000100
(PID.TID 0000.0001)   Seconds in section "ALL                    [THE_MODEL_MAIN]":
(PID.TID 0000.0001)           User time:   30.9827482253313
(PID.TID 0000.0001)         System time:  0.000000000000000E+000
(PID.TID 0000.0001)     Wall clock time:   31.7559328079224
(PID.TID 0000.0001)          No. starts:           1
(PID.TID 0000.0001)           No. stops:           1
(PID.TID 0000.0001)   Seconds in section "INITIALISE_FIXED       [THE_MODEL_MAIN]":
(PID.TID 0000.0001)           User time:  1.416700147092342E-002
(PID.TID 0000.0001)         System time:  0.000000000000000E+000
(PID.TID 0000.0001)     Wall clock time:  3.398585319519043E-002
(PID.TID 0000.0001)          No. starts:           1
(PID.TID 0000.0001)           No. stops:           1
(PID.TID 0000.0001)   Seconds in section "THE_MAIN_LOOP          [THE_MODEL_MAIN]":
(PID.TID 0000.0001)           User time:   30.9685712270439
(PID.TID 0000.0001)         System time:  0.000000000000000E+000
(PID.TID 0000.0001)     Wall clock time:   31.7219300270081
(PID.TID 0000.0001)          No. starts:           1
(PID.TID 0000.0001)           No. stops:           1
(PID.TID 0000.0001)   Seconds in section "INITIALISE_VARIA    [THE_MAIN_LOOP]":
(PID.TID 0000.0001)           User time:  1.096899807453156E-002
(PID.TID 0000.0001)         System time:  0.000000000000000E+000
(PID.TID 0000.0001)     Wall clock time:  2.422404289245605E-002
(PID.TID 0000.0001)          No. starts:           1
(PID.TID 0000.0001)           No. stops:           1
(PID.TID 0000.0001)   Seconds in section "MAIN LOOP           [THE_MAIN_LOOP]":
(PID.TID 0000.0001)           User time:   30.9575942270458
(PID.TID 0000.0001)         System time:  0.000000000000000E+000
(PID.TID 0000.0001)     Wall clock time:   31.6976912021637
(PID.TID 0000.0001)          No. starts:           1
(PID.TID 0000.0001)           No. stops:           1
(PID.TID 0000.0001)   Seconds in section "INIT_PDAF           [THE_MAIN_LOOP]":
(PID.TID 0000.0001)           User time:  2.012999728322029E-002
(PID.TID 0000.0001)         System time:  0.000000000000000E+000
(PID.TID 0000.0001)     Wall clock time:  2.369880676269531E-002
(PID.TID 0000.0001)          No. starts:           1
(PID.TID 0000.0001)           No. stops:           1
(PID.TID 0000.0001)   Seconds in section "MAIN_DO_LOOP        [THE_MAIN_LOOP]":
(PID.TID 0000.0001)           User time:   2.99264244735241
(PID.TID 0000.0001)         System time:  0.000000000000000E+000
(PID.TID 0000.0001)     Wall clock time:   3.54018115997314
(PID.TID 0000.0001)          No. starts:         100
(PID.TID 0000.0001)           No. stops:         100
(PID.TID 0000.0001)   Seconds in section "FORWARD_STEP        [MAIN_DO_LOOP]":
(PID.TID 0000.0001)           User time:   2.99171296507120
(PID.TID 0000.0001)         System time:  0.000000000000000E+000
(PID.TID 0000.0001)     Wall clock time:   3.53923463821411
(PID.TID 0000.0001)          No. starts:         100
(PID.TID 0000.0001)           No. stops:         100
(PID.TID 0000.0001)   Seconds in section "LOAD_FIELDS_DRIVER  [FORWARD_STEP]":
(PID.TID 0000.0001)           User time:  9.097389876842499E-003
(PID.TID 0000.0001)         System time:  0.000000000000000E+000
(PID.TID 0000.0001)     Wall clock time:  9.312629699707031E-003
(PID.TID 0000.0001)          No. starts:         100
(PID.TID 0000.0001)           No. stops:         100
(PID.TID 0000.0001)   Seconds in section "EXTERNAL_FLDS_LOAD [LOAD_FLDS_DRIVER]":
(PID.TID 0000.0001)           User time:  8.115366101264954E-003
(PID.TID 0000.0001)         System time:  0.000000000000000E+000
(PID.TID 0000.0001)     Wall clock time:  8.376598358154297E-003
(PID.TID 0000.0001)          No. starts:         100
(PID.TID 0000.0001)           No. stops:         100
(PID.TID 0000.0001)   Seconds in section "DO_ATMOSPHERIC_PHYS [FORWARD_STEP]":
(PID.TID 0000.0001)           User time:  4.824101924896240E-004
(PID.TID 0000.0001)         System time:  0.000000000000000E+000
(PID.TID 0000.0001)     Wall clock time:  4.835128784179688E-004
(PID.TID 0000.0001)          No. starts:         100
(PID.TID 0000.0001)           No. stops:         100
(PID.TID 0000.0001)   Seconds in section "DO_OCEANIC_PHYS     [FORWARD_STEP]":
(PID.TID 0000.0001)           User time:  0.393061302602291
(PID.TID 0000.0001)         System time:  0.000000000000000E+000
(PID.TID 0000.0001)     Wall clock time:  0.402091026306152
(PID.TID 0000.0001)          No. starts:         100
(PID.TID 0000.0001)           No. stops:         100
(PID.TID 0000.0001)   Seconds in section "THERMODYNAMICS      [FORWARD_STEP]":
(PID.TID 0000.0001)           User time:  0.764874838292599
(PID.TID 0000.0001)         System time:  0.000000000000000E+000
(PID.TID 0000.0001)     Wall clock time:  0.778709888458252
(PID.TID 0000.0001)          No. starts:         100
(PID.TID 0000.0001)           No. stops:         100
(PID.TID 0000.0001)   Seconds in section "DYNAMICS            [FORWARD_STEP]":
(PID.TID 0000.0001)           User time:  0.841177016496658
(PID.TID 0000.0001)         System time:  0.000000000000000E+000
(PID.TID 0000.0001)     Wall clock time:  0.853015899658203
(PID.TID 0000.0001)          No. starts:         100
(PID.TID 0000.0001)           No. stops:         100
(PID.TID 0000.0001)   Seconds in section "SOLVE_FOR_PRESSURE  [FORWARD_STEP]":
(PID.TID 0000.0001)           User time:  0.405521340668201
(PID.TID 0000.0001)         System time:  0.000000000000000E+000
(PID.TID 0000.0001)     Wall clock time:  0.418994188308716
(PID.TID 0000.0001)          No. starts:         100
(PID.TID 0000.0001)           No. stops:         100
(PID.TID 0000.0001)   Seconds in section "MOM_CORRECTION_STEP [FORWARD_STEP]":
(PID.TID 0000.0001)           User time:  2.107072621583939E-002
(PID.TID 0000.0001)         System time:  0.000000000000000E+000
(PID.TID 0000.0001)     Wall clock time:  2.133417129516602E-002
(PID.TID 0000.0001)          No. starts:         100
(PID.TID 0000.0001)           No. stops:         100
(PID.TID 0000.0001)   Seconds in section "INTEGR_CONTINUITY   [FORWARD_STEP]":
(PID.TID 0000.0001)           User time:  3.539551049470901E-002
(PID.TID 0000.0001)         System time:  0.000000000000000E+000
(PID.TID 0000.0001)     Wall clock time:  3.560137748718262E-002
(PID.TID 0000.0001)          No. starts:         100
(PID.TID 0000.0001)           No. stops:         100
(PID.TID 0000.0001)   Seconds in section "TRC_CORRECTION_STEP [FORWARD_STEP]":
(PID.TID 0000.0001)           User time:  5.802512168884277E-004
(PID.TID 0000.0001)         System time:  0.000000000000000E+000
(PID.TID 0000.0001)     Wall clock time:  5.745887756347656E-004
(PID.TID 0000.0001)          No. starts:         100
(PID.TID 0000.0001)           No. stops:         100
(PID.TID 0000.0001)   Seconds in section "BLOCKING_EXCHANGES  [FORWARD_STEP]":
(PID.TID 0000.0001)           User time:  1.968330889940262E-002
(PID.TID 0000.0001)         System time:  0.000000000000000E+000
(PID.TID 0000.0001)     Wall clock time:  1.981592178344727E-002
(PID.TID 0000.0001)          No. starts:         100
(PID.TID 0000.0001)           No. stops:         100
(PID.TID 0000.0001)   Seconds in section "DO_STATEVARS_TAVE   [FORWARD_STEP]":
(PID.TID 0000.0001)           User time:  0.116317115724087
(PID.TID 0000.0001)         System time:  0.000000000000000E+000
(PID.TID 0000.0001)     Wall clock time:  0.122581243515015
(PID.TID 0000.0001)          No. starts:         100
(PID.TID 0000.0001)           No. stops:         100
(PID.TID 0000.0001)   Seconds in section "MONITOR             [FORWARD_STEP]":
(PID.TID 0000.0001)           User time:  0.286268495023251
(PID.TID 0000.0001)         System time:  0.000000000000000E+000
(PID.TID 0000.0001)     Wall clock time:  0.291908740997314
(PID.TID 0000.0001)          No. starts:         100
(PID.TID 0000.0001)           No. stops:         100
(PID.TID 0000.0001)   Seconds in section "DO_THE_MODEL_IO     [FORWARD_STEP]":
(PID.TID 0000.0001)           User time:  7.758060097694397E-002
(PID.TID 0000.0001)         System time:  0.000000000000000E+000
(PID.TID 0000.0001)     Wall clock time:  0.453178882598877
(PID.TID 0000.0001)          No. starts:         100
(PID.TID 0000.0001)           No. stops:         100
(PID.TID 0000.0001)   Seconds in section "DO_WRITE_PICKUP     [FORWARD_STEP]":
(PID.TID 0000.0001)           User time:  1.194696873426437E-002
(PID.TID 0000.0001)         System time:  0.000000000000000E+000
(PID.TID 0000.0001)     Wall clock time:  0.123942613601685
(PID.TID 0000.0001)          No. starts:         100
(PID.TID 0000.0001)           No. stops:         100
(PID.TID 0000.0001)   Seconds in section "ASSIMILATE_PDAF     [THE_MAIN_LOOP]":
(PID.TID 0000.0001)           User time:   27.9438812062144
(PID.TID 0000.0001)         System time:  0.000000000000000E+000
(PID.TID 0000.0001)     Wall clock time:   28.1322553157806
(PID.TID 0000.0001)          No. starts:         100
(PID.TID 0000.0001)           No. stops:         100
(PID.TID 0000.0001) // ======================================================
(PID.TID 0000.0001) // Tile <-> Tile communication statistics
(PID.TID 0000.0001) // ======================================================
(PID.TID 0000.0001) // o Tile number: 000001
(PID.TID 0000.0001) //         No. X exchanges =              0
(PID.TID 0000.0001) //            Max. X spins =              0
(PID.TID 0000.0001) //            Min. X spins =     1000000000
(PID.TID 0000.0001) //          Total. X spins =              0
(PID.TID 0000.0001) //            Avg. X spins =       0.00E+00
(PID.TID 0000.0001) //         No. Y exchanges =              0
(PID.TID 0000.0001) //            Max. Y spins =              0
(PID.TID 0000.0001) //            Min. Y spins =     1000000000
(PID.TID 0000.0001) //          Total. Y spins =              0
(PID.TID 0000.0001) //            Avg. Y spins =       0.00E+00
(PID.TID 0000.0001) // o Thread number: 000001
(PID.TID 0000.0001) //            No. barriers =         140198
(PID.TID 0000.0001) //      Max. barrier spins =              1
(PID.TID 0000.0001) //      Min. barrier spins =              1
(PID.TID 0000.0001) //     Total barrier spins =         140198
(PID.TID 0000.0001) //      Avg. barrier spins =       1.00E+00
PROGRAM MAIN: Execution ended Normally
